<?xml version="1.0" encoding="UTF-8"?>

<!-- generated on Mon Jan  7 22:29:25 2013 by SUMO netconvert Version 0.16.0
<?xml version="1.0" encoding="UTF-8"?>

<configuration xmlns:xsi="http://www.w3.org/2001/XMLSchema-instance" xsi:noNamespaceSchemaLocation="http://sumo.sf.net/xsd/netconvertConfiguration.xsd">

    <input>
        <node-files value="poa-arterials.nod.xml"/>
        <edge-files value="poa-arterials.edg.xml"/>
        <connection-files value="poa-arterials.con.xml"/>
    </input>

    <output>
        <output-file value="poa-arterials-no_u-tl-nocft.net.xml"/>
    </output>

    <tls_building>
        <tls.guess value="true"/>
    </tls_building>

    <report>
        <verbose value="true"/>
    </report>

</configuration>
-->

<net version="0.13" xmlns:xsi="http://www.w3.org/2001/XMLSchema-instance" xsi:noNamespaceSchemaLocation="http://sumo.sf.net/xsd/net_file.xsd">

    <location netOffset="0.00,0.00" convBoundary="0.00,0.00,13653.03,12451.00" origBoundary="0.00,0.00,13653.03,12451.00" projParameter="!"/>

    <edge id=":1_0" function="internal">
        <lane id=":1_0_0" index="0" speed="13.90" length="5.16" shape="472.66,5908.00 468.85,5904.53"/>
    </edge>
    <edge id=":1_1" function="internal">
        <lane id=":1_1_0" index="0" speed="13.90" length="3.08" shape="474.00,5904.99 471.72,5902.91"/>
    </edge>
    <edge id=":1_2" function="internal">
        <lane id=":1_2_0" index="0" speed="13.90" length="1.01" shape="475.34,5901.97 474.60,5901.29"/>
    </edge>
    <edge id=":10_0" function="internal">
        <lane id=":10_0_0" index="0" speed="13.90" length="4.82" shape="4385.23,1088.51 4386.37,1087.56 4387.28,1087.40 4387.95,1088.03 4388.39,1089.45"/>
    </edge>
    <edge id=":11_0" function="internal">
        <lane id=":11_0_0" index="0" speed="13.90" length="4.82" shape="5147.82,-0.72 5149.10,-1.47 5150.02,-1.48 5150.58,-0.75 5150.78,0.72"/>
    </edge>
    <edge id=":12_0" function="internal">
        <lane id=":12_0_0" index="0" speed="13.90" length="24.96" shape="6306.91,2297.44 6305.29,2296.58 6301.04,2297.85 6294.15,2301.25 6284.63,2306.77"/>
    </edge>
    <edge id=":12_1" function="internal">
        <lane id=":12_1_0" index="0" speed="13.90" length="36.49" shape="6306.91,2297.44 6304.19,2292.12 6297.95,2288.39 6288.20,2286.23 6274.95,2285.64"/>
    </edge>
    <edge id=":12_2" function="internal">
        <lane id=":12_2_0" index="0" speed="13.90" length="41.15" shape="6310.17,2296.92 6307.07,2290.37 6300.16,2285.76 6289.43,2283.08 6274.90,2282.34"/>
    </edge>
    <edge id=":12_3" function="internal">
        <lane id=":12_3_0" index="0" speed="13.90" length="5.62" shape="6313.43,2296.39 6313.26,2290.78"/>
    </edge>
    <edge id=":12_16" function="internal">
        <lane id=":12_16_0" index="0" speed="13.90" length="20.40" shape="6313.26,2290.78 6313.20,2288.59 6315.39,2283.29 6320.01,2280.48 6327.06,2280.16"/>
    </edge>
    <edge id=":12_4" function="internal">
        <lane id=":12_4_0" index="0" speed="13.90" length="6.69" shape="6325.95,2290.00 6324.44,2290.15 6323.48,2291.01 6323.07,2292.57 6323.21,2294.83"/>
    </edge>
    <edge id=":12_5" function="internal">
        <lane id=":12_5_0" index="0" speed="13.90" length="46.00" shape="6325.95,2290.00 6314.74,2290.37 6303.65,2293.42 6292.95,2298.25 6282.92,2303.95"/>
    </edge>
    <edge id=":12_6" function="internal">
        <lane id=":12_6_0" index="0" speed="13.90" length="51.00" shape="6325.95,2290.00 6313.81,2289.10 6300.51,2288.76 6287.19,2288.78 6274.99,2288.94"/>
    </edge>
    <edge id=":12_7" function="internal">
        <lane id=":12_7_0" index="0" speed="13.90" length="51.41" shape="6326.32,2286.72 6314.12,2285.81 6300.67,2285.47 6287.21,2285.49 6274.95,2285.64"/>
    </edge>
    <edge id=":12_8" function="internal">
        <lane id=":12_8_0" index="0" speed="13.90" length="51.83" shape="6326.69,2283.44 6314.42,2282.53 6300.83,2282.18 6287.23,2282.19 6274.90,2282.34"/>
    </edge>
    <edge id=":12_9" function="internal">
        <lane id=":12_9_0" index="0" speed="13.90" length="53.07" shape="6274.77,2272.44 6287.29,2272.30 6301.32,2272.32 6315.34,2272.68 6327.80,2273.60"/>
    </edge>
    <edge id=":12_10" function="internal">
        <lane id=":12_10_0" index="0" speed="13.90" length="52.66" shape="6274.82,2275.74 6287.27,2275.60 6301.16,2275.61 6315.03,2275.97 6327.43,2276.88"/>
    </edge>
    <edge id=":12_11" function="internal">
        <lane id=":12_11_0" index="0" speed="13.90" length="28.98" shape="6274.86,2279.04 6293.57,2279.85 6303.59,2282.02"/>
    </edge>
    <edge id=":12_17" function="internal">
        <lane id=":12_17_0" index="0" speed="13.90" length="22.31" shape="6303.59,2282.02 6307.33,2282.83 6316.12,2288.00 6319.95,2295.35"/>
    </edge>
    <edge id=":12_12" function="internal">
        <lane id=":12_12_0" index="0" speed="13.90" length="20.63" shape="6274.86,2279.04 6291.64,2280.20 6294.89,2282.19"/>
    </edge>
    <edge id=":12_18" function="internal">
        <lane id=":12_18_0" index="0" speed="13.90" length="28.60" shape="6294.89,2282.19 6298.29,2284.27 6294.81,2291.24 6281.20,2301.13"/>
    </edge>
    <edge id=":12_13" function="internal">
        <lane id=":12_13_0" index="0" speed="13.90" length="8.30" shape="6276.06,2292.67 6278.36,2291.00 6278.95,2289.82 6277.82,2289.14 6274.99,2288.94"/>
    </edge>
    <edge id=":12_14" function="internal">
        <lane id=":12_14_0" index="0" speed="13.90" length="53.72" shape="6277.78,2295.49 6288.85,2289.06 6301.82,2282.63 6315.19,2277.99 6327.43,2276.88"/>
    </edge>
    <edge id=":12_15" function="internal">
        <lane id=":12_15_0" index="0" speed="13.90" length="21.81" shape="6279.49,2298.31 6294.66,2290.35 6299.18,2289.12"/>
    </edge>
    <edge id=":12_19" function="internal">
        <lane id=":12_19_0" index="0" speed="13.90" length="22.12" shape="6299.18,2289.12 6305.92,2287.29 6313.26,2289.13 6316.69,2295.87"/>
    </edge>
    <edge id=":13_0" function="internal">
        <lane id=":13_0_0" index="0" speed="13.90" length="10.82" shape="6412.41,2918.85 6410.26,2915.27 6408.33,2912.87 6406.63,2911.63 6405.17,2911.57"/>
    </edge>
    <edge id=":13_1" function="internal">
        <lane id=":13_1_0" index="0" speed="13.90" length="28.85" shape="6415.31,2917.27 6411.14,2909.79 6408.49,2904.50 6406.69,2898.92 6405.10,2890.56"/>
    </edge>
    <edge id=":13_2" function="internal">
        <lane id=":13_2_0" index="0" speed="13.90" length="7.81" shape="6418.20,2915.69 6415.44,2908.39"/>
    </edge>
    <edge id=":13_16" function="internal">
        <lane id=":13_16_0" index="0" speed="13.90" length="19.43" shape="6415.44,2908.39 6415.37,2908.20 6416.09,2902.64 6420.37,2899.00 6428.19,2897.29"/>
    </edge>
    <edge id=":13_3" function="internal">
        <lane id=":13_3_0" index="0" speed="13.90" length="5.62" shape="6428.96,2907.16 6427.34,2907.51 6426.46,2908.26 6426.31,2909.41 6426.90,2910.96"/>
    </edge>
    <edge id=":13_4" function="internal">
        <lane id=":13_4_0" index="0" speed="13.90" length="24.36" shape="6428.96,2907.16 6421.74,2907.63 6416.77,2908.09 6411.95,2909.18 6405.17,2911.57"/>
    </edge>
    <edge id=":13_5" function="internal">
        <lane id=":13_5_0" index="0" speed="13.90" length="25.32" shape="6428.70,2903.87 6421.20,2904.37 6416.04,2904.85 6411.03,2906.00 6403.98,2908.49"/>
    </edge>
    <edge id=":13_6" function="internal">
        <lane id=":13_6_0" index="0" speed="13.90" length="26.27" shape="6428.45,2900.58 6420.66,2901.10 6415.31,2901.62 6410.11,2902.82 6402.80,2905.41"/>
    </edge>
    <edge id=":13_7" function="internal">
        <lane id=":13_7_0" index="0" speed="13.90" length="11.23" shape="6428.45,2900.58 6420.37,2900.45 6417.35,2899.55"/>
    </edge>
    <edge id=":13_17" function="internal">
        <lane id=":13_17_0" index="0" speed="13.90" length="13.95" shape="6417.35,2899.55 6414.34,2898.65 6410.33,2895.18 6408.36,2890.04"/>
    </edge>
    <edge id=":13_8" function="internal">
        <lane id=":13_8_0" index="0" speed="13.90" length="10.41" shape="6418.14,2888.48 6418.91,2889.72 6420.76,2890.50 6423.68,2890.84 6427.68,2890.71"/>
    </edge>
    <edge id=":13_9" function="internal">
        <lane id=":13_9_0" index="0" speed="13.90" length="25.47" shape="6414.88,2889.00 6416.29,2896.38 6417.92,2901.28 6420.31,2905.93 6424.00,2912.53"/>
    </edge>
    <edge id=":13_10" function="internal">
        <lane id=":13_10_0" index="0" speed="13.90" length="2.73" shape="6411.62,2889.52 6411.70,2892.25"/>
    </edge>
    <edge id=":13_18" function="internal">
        <lane id=":13_18_0" index="0" speed="13.90" length="17.18" shape="6411.70,2892.25 6411.77,2894.93 6410.35,2899.38 6407.36,2902.87 6402.80,2905.41"/>
    </edge>
    <edge id=":13_11" function="internal">
        <lane id=":13_11_0" index="0" speed="13.90" length="6.26" shape="6399.24,2896.17 6400.61,2895.39 6401.50,2894.28 6401.91,2892.84 6401.84,2891.08"/>
    </edge>
    <edge id=":13_12" function="internal">
        <lane id=":13_12_0" index="0" speed="13.90" length="29.15" shape="6399.24,2896.17 6407.35,2893.28 6413.11,2891.91 6419.04,2891.31 6427.68,2890.71"/>
    </edge>
    <edge id=":13_13" function="internal">
        <lane id=":13_13_0" index="0" speed="13.90" length="28.19" shape="6400.42,2899.25 6408.27,2896.46 6413.84,2895.15 6419.58,2894.57 6427.93,2894.00"/>
    </edge>
    <edge id=":13_14" function="internal">
        <lane id=":13_14_0" index="0" speed="13.90" length="27.23" shape="6401.61,2902.33 6409.19,2899.64 6414.58,2898.38 6420.12,2897.84 6428.19,2897.29"/>
    </edge>
    <edge id=":13_15" function="internal">
        <lane id=":13_15_0" index="0" speed="13.90" length="6.09" shape="6401.61,2902.33 6406.88,2901.51 6407.60,2901.75"/>
    </edge>
    <edge id=":13_19" function="internal">
        <lane id=":13_19_0" index="0" speed="13.90" length="18.93" shape="6407.60,2901.75 6411.89,2903.20 6416.63,2907.40 6421.10,2914.11"/>
    </edge>
    <edge id=":14_0" function="internal">
        <lane id=":14_0_0" index="0" speed="13.90" length="4.25" shape="7229.97,2391.56 7225.72,2391.59"/>
    </edge>
    <edge id=":14_1" function="internal">
        <lane id=":14_1_0" index="0" speed="13.90" length="3.48" shape="7229.56,2388.29 7226.09,2388.31"/>
    </edge>
    <edge id=":14_2" function="internal">
        <lane id=":14_2_0" index="0" speed="13.90" length="2.70" shape="7229.16,2385.01 7226.46,2385.03"/>
    </edge>
    <edge id=":14_3" function="internal">
        <lane id=":14_3_0" index="0" speed="13.90" length="0.38" shape="7227.57,2375.19 7227.94,2375.19"/>
    </edge>
    <edge id=":14_4" function="internal">
        <lane id=":14_4_0" index="0" speed="13.90" length="1.15" shape="7227.20,2378.47 7228.35,2378.46"/>
    </edge>
    <edge id=":14_5" function="internal">
        <lane id=":14_5_0" index="0" speed="13.90" length="1.93" shape="7226.83,2381.75 7228.75,2381.74"/>
    </edge>
    <edge id=":15_0" function="internal">
        <lane id=":15_0_0" index="0" speed="13.90" length="2.52" shape="7215.11,2845.91 7212.62,2846.28"/>
    </edge>
    <edge id=":15_1" function="internal">
        <lane id=":15_1_0" index="0" speed="13.90" length="2.06" shape="7214.40,2842.69 7212.37,2842.99"/>
    </edge>
    <edge id=":15_2" function="internal">
        <lane id=":15_2_0" index="0" speed="13.90" length="1.60" shape="7213.70,2839.46 7212.11,2839.70"/>
    </edge>
    <edge id=":15_3" function="internal">
        <lane id=":15_3_0" index="0" speed="13.90" length="0.22" shape="7211.35,2829.83 7211.57,2829.80"/>
    </edge>
    <edge id=":15_4" function="internal">
        <lane id=":15_4_0" index="0" speed="13.90" length="0.68" shape="7211.60,2833.12 7212.28,2833.02"/>
    </edge>
    <edge id=":15_5" function="internal">
        <lane id=":15_5_0" index="0" speed="13.90" length="1.14" shape="7211.86,2836.41 7212.99,2836.24"/>
    </edge>
    <edge id=":16_0" function="internal">
        <lane id=":16_0_0" index="0" speed="13.90" length="11.16" shape="10181.26,2195.83 10180.23,2194.77 10178.11,2194.32 10174.93,2194.47 10170.67,2195.23"/>
    </edge>
    <edge id=":16_1" function="internal">
        <lane id=":16_1_0" index="0" speed="13.90" length="24.51" shape="10181.26,2195.83 10178.55,2189.12 10176.13,2184.78 10173.11,2180.77 10168.59,2175.06"/>
    </edge>
    <edge id=":16_2" function="internal">
        <lane id=":16_2_0" index="0" speed="13.90" length="25.51" shape="10184.36,2194.69 10181.54,2187.70 10179.03,2183.17 10175.90,2178.99 10171.21,2173.05"/>
    </edge>
    <edge id=":16_3" function="internal">
        <lane id=":16_3_0" index="0" speed="13.90" length="26.51" shape="10187.46,2193.54 10184.53,2186.28 10181.94,2181.57 10178.70,2177.21 10173.82,2171.03"/>
    </edge>
    <edge id=":16_4" function="internal">
        <lane id=":16_4_0" index="0" speed="13.90" length="29.51" shape="10181.66,2164.99 10187.08,2171.88 10190.65,2176.75 10193.50,2182.02 10196.74,2190.11"/>
    </edge>
    <edge id=":16_5" function="internal">
        <lane id=":16_5_0" index="0" speed="13.90" length="28.51" shape="10179.05,2167.01 10184.28,2173.66 10187.75,2178.36 10190.51,2183.44 10193.65,2191.26"/>
    </edge>
    <edge id=":16_6" function="internal">
        <lane id=":16_6_0" index="0" speed="13.90" length="27.51" shape="10176.43,2169.02 10181.49,2175.44 10184.84,2179.96 10187.52,2184.86 10190.55,2192.40"/>
    </edge>
    <edge id=":16_7" function="internal">
        <lane id=":16_7_0" index="0" speed="13.90" length="13.55" shape="10176.43,2169.02 10181.35,2177.37 10181.68,2181.22"/>
    </edge>
    <edge id=":16_12" function="internal">
        <lane id=":16_12_0" index="0" speed="13.90" length="17.70" shape="10181.68,2181.22 10181.91,2183.98 10178.11,2188.86 10169.96,2192.00"/>
    </edge>
    <edge id=":16_8" function="internal">
        <lane id=":16_8_0" index="0" speed="13.90" length="11.78" shape="10176.43,2169.02 10180.47,2176.08 10180.57,2179.73"/>
    </edge>
    <edge id=":16_13" function="internal">
        <lane id=":16_13_0" index="0" speed="13.90" length="15.79" shape="10180.57,2179.73 10180.62,2181.73 10176.88,2185.96 10169.25,2188.78"/>
    </edge>
    <edge id=":16_9" function="internal">
        <lane id=":16_9_0" index="0" speed="13.90" length="5.65" shape="10167.12,2179.11 10168.68,2178.53 10169.45,2177.67 10169.42,2176.51 10168.59,2175.06"/>
    </edge>
    <edge id=":16_10" function="internal">
        <lane id=":16_10_0" index="0" speed="13.90" length="5.96" shape="10167.83,2182.33 10173.74,2181.61"/>
    </edge>
    <edge id=":16_14" function="internal">
        <lane id=":16_14_0" index="0" speed="13.90" length="24.10" shape="10173.74,2181.61 10177.25,2181.17 10184.70,2182.27 10190.16,2185.63 10193.65,2191.26"/>
    </edge>
    <edge id=":16_11" function="internal">
        <lane id=":16_11_0" index="0" speed="13.90" length="7.51" shape="10168.54,2185.56 10175.98,2184.59"/>
    </edge>
    <edge id=":16_15" function="internal">
        <lane id=":16_15_0" index="0" speed="13.90" length="17.77" shape="10175.98,2184.59 10176.67,2184.50 10183.05,2185.28 10187.68,2187.92 10190.55,2192.40"/>
    </edge>
    <edge id=":17_0" function="internal">
        <lane id=":17_0_0" index="0" speed="13.90" length="10.73" shape="10070.98,2048.31 10068.41,2045.20 10066.24,2043.01 10064.46,2041.76 10063.06,2041.44"/>
    </edge>
    <edge id=":17_1" function="internal">
        <lane id=":17_1_0" index="0" speed="13.90" length="6.91" shape="10073.59,2046.30 10070.20,2040.28"/>
    </edge>
    <edge id=":17_12" function="internal">
        <lane id=":17_12_0" index="0" speed="13.90" length="23.22" shape="10070.20,2040.28 10069.40,2038.87 10068.99,2032.35 10072.34,2026.74 10079.47,2022.05"/>
    </edge>
    <edge id=":17_2" function="internal">
        <lane id=":17_2_0" index="0" speed="13.90" length="5.68" shape="10076.21,2044.29 10073.42,2039.34"/>
    </edge>
    <edge id=":17_13" function="internal">
        <lane id=":17_13_0" index="0" speed="13.90" length="18.24" shape="10073.42,2039.34 10072.88,2038.39 10072.55,2033.21 10075.21,2028.76 10080.87,2025.04"/>
    </edge>
    <edge id=":17_3" function="internal">
        <lane id=":17_3_0" index="0" speed="13.90" length="5.28" shape="10085.08,2034.00 10083.83,2034.82 10083.24,2035.80 10083.32,2036.94 10084.05,2038.25"/>
    </edge>
    <edge id=":17_4" function="internal">
        <lane id=":17_4_0" index="0" speed="13.90" length="23.43" shape="10085.08,2034.00 10078.83,2037.04 10074.45,2039.04 10069.89,2040.37 10063.06,2041.44"/>
    </edge>
    <edge id=":17_5" function="internal">
        <lane id=":17_5_0" index="0" speed="13.90" length="22.38" shape="10083.68,2031.01 10077.70,2033.93 10073.53,2035.85 10069.18,2037.14 10062.66,2038.17"/>
    </edge>
    <edge id=":17_6" function="internal">
        <lane id=":17_6_0" index="0" speed="13.90" length="21.34" shape="10082.27,2028.02 10076.58,2030.81 10072.61,2032.66 10068.47,2033.90 10062.25,2034.89"/>
    </edge>
    <edge id=":17_7" function="internal">
        <lane id=":17_7_0" index="0" speed="13.90" length="18.20" shape="10061.04,2025.07 10066.33,2024.20 10069.85,2023.09 10073.22,2021.46 10078.07,2019.06"/>
    </edge>
    <edge id=":17_8" function="internal">
        <lane id=":17_8_0" index="0" speed="13.90" length="19.25" shape="10061.44,2028.34 10067.04,2027.43 10070.77,2026.28 10074.34,2024.58 10079.47,2022.05"/>
    </edge>
    <edge id=":17_9" function="internal">
        <lane id=":17_9_0" index="0" speed="13.90" length="20.29" shape="10061.85,2031.62 10067.75,2030.67 10071.69,2029.47 10075.46,2027.70 10080.87,2025.04"/>
    </edge>
    <edge id=":17_10" function="internal">
        <lane id=":17_10_0" index="0" speed="13.90" length="10.28" shape="10061.85,2031.62 10067.50,2031.61 10071.96,2032.85"/>
    </edge>
    <edge id=":17_14" function="internal">
        <lane id=":17_14_0" index="0" speed="13.90" length="12.18" shape="10071.96,2032.85 10072.65,2033.05 10077.29,2035.93 10081.44,2040.26"/>
    </edge>
    <edge id=":17_11" function="internal">
        <lane id=":17_11_0" index="0" speed="13.90" length="8.11" shape="10061.85,2031.62 10065.91,2031.91 10069.60,2033.56"/>
    </edge>
    <edge id=":17_15" function="internal">
        <lane id=":17_15_0" index="0" speed="13.90" length="12.77" shape="10069.60,2033.56 10070.09,2033.79 10074.40,2037.24 10078.82,2042.27"/>
    </edge>
    <edge id=":18_0" function="internal">
        <lane id=":18_0_0" index="0" speed="13.90" length="4.82" shape="11109.12,1541.97 11110.59,1542.19 11111.31,1542.76 11111.29,1543.68 11110.52,1544.95"/>
    </edge>
    <edge id=":19_0" function="internal">
        <lane id=":19_0_0" index="0" speed="13.90" length="19.43" shape="2649.52,3987.80 2643.81,3987.02 2639.88,3986.63 2635.93,3986.59 2630.17,3986.81"/>
    </edge>
    <edge id=":19_1" function="internal">
        <lane id=":19_1_0" index="0" speed="13.90" length="20.04" shape="2649.97,3984.53 2644.08,3983.72 2640.02,3983.33 2635.95,3983.28 2630.01,3983.52"/>
    </edge>
    <edge id=":19_2" function="internal">
        <lane id=":19_2_0" index="0" speed="13.90" length="20.65" shape="2650.43,3981.26 2644.35,3980.43 2640.17,3980.03 2635.97,3979.98 2629.85,3980.22"/>
    </edge>
    <edge id=":19_3" function="internal">
        <lane id=":19_3_0" index="0" speed="13.90" length="12.23" shape="2650.43,3981.26 2643.56,3979.51 2639.25,3976.71"/>
    </edge>
    <edge id=":19_12" function="internal">
        <lane id=":19_12_0" index="0" speed="13.90" length="11.13" shape="2639.25,3976.71 2638.87,3976.47 2636.34,3972.12 2635.98,3966.48"/>
    </edge>
    <edge id=":19_4" function="internal">
        <lane id=":19_4_0" index="0" speed="13.90" length="10.34" shape="2650.43,3981.26 2645.00,3979.70 2641.32,3976.79"/>
    </edge>
    <edge id=":19_13" function="internal">
        <lane id=":19_13_0" index="0" speed="13.90" length="10.34" shape="2641.32,3976.79 2639.41,3972.50 2639.26,3966.86"/>
    </edge>
    <edge id=":19_5" function="internal">
        <lane id=":19_5_0" index="0" speed="13.90" length="4.97" shape="2649.10,3967.99 2649.13,3969.35 2649.59,3970.38 2650.48,3971.08 2651.78,3971.45"/>
    </edge>
    <edge id=":19_6" function="internal">
        <lane id=":19_6_0" index="0" speed="13.90" length="3.02" shape="2645.82,3967.61 2645.10,3970.55"/>
    </edge>
    <edge id=":19_14" function="internal">
        <lane id=":19_14_0" index="0" speed="13.90" length="21.72" shape="2645.10,3970.55 2644.17,3974.32 2640.99,3979.20 2636.27,3982.27 2630.01,3983.52"/>
    </edge>
    <edge id=":19_7" function="internal">
        <lane id=":19_7_0" index="0" speed="13.90" length="3.08" shape="2642.54,3967.24 2641.81,3970.23"/>
    </edge>
    <edge id=":19_15" function="internal">
        <lane id=":19_15_0" index="0" speed="13.90" length="16.95" shape="2641.81,3970.23 2641.21,3972.71 2638.65,3976.70 2634.87,3979.21 2629.85,3980.22"/>
    </edge>
    <edge id=":19_8" function="internal">
        <lane id=":19_8_0" index="0" speed="13.90" length="5.90" shape="2629.38,3970.33 2630.66,3970.02 2631.64,3969.21 2632.32,3967.90 2632.70,3966.10"/>
    </edge>
    <edge id=":19_9" function="internal">
        <lane id=":19_9_0" index="0" speed="13.90" length="22.49" shape="2629.38,3970.33 2636.04,3970.07 2640.61,3970.11 2645.17,3970.55 2651.78,3971.45"/>
    </edge>
    <edge id=":19_10" function="internal">
        <lane id=":19_10_0" index="0" speed="13.90" length="21.88" shape="2629.54,3973.63 2636.02,3973.37 2640.47,3973.42 2644.90,3973.85 2651.33,3974.72"/>
    </edge>
    <edge id=":19_11" function="internal">
        <lane id=":19_11_0" index="0" speed="13.90" length="21.26" shape="2629.70,3976.93 2636.00,3976.67 2640.32,3976.72 2644.63,3977.14 2650.88,3977.99"/>
    </edge>
    <edge id=":2_0" function="internal">
        <lane id=":2_0_0" index="0" speed="13.90" length="30.36" shape="136.39,5312.84 132.25,5304.94 130.31,5299.03 129.98,5292.77 130.68,5283.84"/>
    </edge>
    <edge id=":2_1" function="internal">
        <lane id=":2_1_0" index="0" speed="13.90" length="28.34" shape="139.27,5311.22 135.41,5303.85 133.60,5298.33 133.31,5292.48 133.97,5284.15"/>
    </edge>
    <edge id=":2_2" function="internal">
        <lane id=":2_2_0" index="0" speed="13.90" length="18.19" shape="142.15,5309.61 139.33,5302.53 139.80,5297.19 143.57,5293.58"/>
    </edge>
    <edge id=":2_10" function="internal">
        <lane id=":2_10_0" index="0" speed="13.90" length="7.30" shape="143.57,5293.58 150.62,5291.71"/>
    </edge>
    <edge id=":2_3" function="internal">
        <lane id=":2_3_0" index="0" speed="13.90" length="21.96" shape="142.15,5309.61 140.01,5303.91 140.78,5299.57 144.44,5296.60 151.00,5294.98"/>
    </edge>
    <edge id=":2_4" function="internal">
        <lane id=":2_4_0" index="0" speed="13.90" length="20.60" shape="152.14,5304.82 141.93,5304.54 134.94,5300.95 133.74,5298.73"/>
    </edge>
    <edge id=":2_11" function="internal">
        <lane id=":2_11_0" index="0" speed="13.90" length="15.55" shape="133.74,5298.73 131.19,5294.05 130.68,5283.84"/>
    </edge>
    <edge id=":2_5" function="internal">
        <lane id=":2_5_0" index="0" speed="13.90" length="29.97" shape="151.76,5301.54 143.29,5301.31 137.50,5298.33 134.39,5292.61 133.97,5284.15"/>
    </edge>
    <edge id=":2_6" function="internal">
        <lane id=":2_6_0" index="0" speed="13.90" length="23.80" shape="151.38,5298.26 144.65,5298.08 140.06,5295.72 137.59,5291.17 137.25,5284.45"/>
    </edge>
    <edge id=":2_7" function="internal">
        <lane id=":2_7_0" index="0" speed="13.90" length="5.27" shape="147.11,5285.37 147.18,5286.86 147.73,5287.86 148.75,5288.39 150.24,5288.43"/>
    </edge>
    <edge id=":2_8" function="internal">
        <lane id=":2_8_0" index="0" speed="13.90" length="11.44" shape="143.82,5285.07 143.99,5288.30 145.17,5290.48 147.38,5291.62 150.62,5291.71"/>
    </edge>
    <edge id=":2_9" function="internal">
        <lane id=":2_9_0" index="0" speed="13.90" length="17.62" shape="140.54,5284.76 140.79,5289.74 142.62,5293.10 146.02,5294.85 151.00,5294.98"/>
    </edge>
    <edge id=":20_0" function="internal">
        <lane id=":20_0_0" index="0" speed="13.90" length="14.45" shape="3361.36,4083.26 3357.97,4085.29 3356.54,4087.78 3355.69,4090.94 3354.02,4094.96"/>
    </edge>
    <edge id=":20_1" function="internal">
        <lane id=":20_1_0" index="0" speed="13.90" length="24.15" shape="3361.36,4083.26 3354.66,4085.23 3349.79,4085.32 3344.80,4084.30 3337.72,4082.97"/>
    </edge>
    <edge id=":20_2" function="internal">
        <lane id=":20_2_0" index="0" speed="13.90" length="22.50" shape="3360.18,4080.18 3353.94,4081.98 3349.42,4081.99 3344.77,4080.97 3338.17,4079.70"/>
    </edge>
    <edge id=":20_3" function="internal">
        <lane id=":20_3_0" index="0" speed="13.90" length="20.85" shape="3359.01,4077.09 3353.23,4078.73 3349.04,4078.66 3344.73,4077.64 3338.63,4076.44"/>
    </edge>
    <edge id=":20_4" function="internal">
        <lane id=":20_4_0" index="0" speed="13.90" length="1.16" shape="3359.01,4077.09 3357.88,4076.84"/>
    </edge>
    <edge id=":20_17" function="internal">
        <lane id=":20_17_0" index="0" speed="13.90" length="4.76" shape="3357.88,4076.84 3357.23,4076.69 3356.39,4075.92 3356.51,4074.79 3357.57,4073.31"/>
    </edge>
    <edge id=":20_5" function="internal">
        <lane id=":20_5_0" index="0" speed="13.90" length="5.59" shape="3361.15,4082.71 3355.70,4081.47"/>
    </edge>
    <edge id=":20_18" function="internal">
        <lane id=":20_18_0" index="0" speed="13.90" length="17.66" shape="3355.70,4081.47 3354.16,4081.12 3350.88,4078.11 3351.32,4073.68 3355.48,4067.84"/>
    </edge>
    <edge id=":20_6" function="internal">
        <lane id=":20_6_0" index="0" speed="13.90" length="16.75" shape="3359.95,4079.58 3356.20,4082.52 3354.44,4085.38 3353.23,4088.78 3351.14,4093.34"/>
    </edge>
    <edge id=":20_7" function="internal">
        <lane id=":20_7_0" index="0" speed="13.90" length="20.94" shape="3358.76,4076.44 3353.39,4078.84 3349.21,4078.92 3344.77,4077.75 3338.63,4076.44"/>
    </edge>
    <edge id=":20_8" function="internal">
        <lane id=":20_8_0" index="0" speed="13.90" length="1.90" shape="3358.76,4076.44 3357.62,4076.18 3357.08,4075.69"/>
    </edge>
    <edge id=":20_19" function="internal">
        <lane id=":20_19_0" index="0" speed="13.90" length="1.90" shape="3357.08,4075.69 3357.15,4074.96 3357.83,4074.01"/>
    </edge>
    <edge id=":20_9" function="internal">
        <lane id=":20_9_0" index="0" speed="13.90" length="15.82" shape="3339.98,4066.63 3344.62,4067.69 3347.97,4068.70 3351.12,4068.78 3355.18,4067.04"/>
    </edge>
    <edge id=":20_10" function="internal">
        <lane id=":20_10_0" index="0" speed="13.90" length="15.93" shape="3339.98,4066.63 3344.63,4067.66 3347.90,4068.68 3351.08,4068.98 3355.48,4067.84"/>
    </edge>
    <edge id=":20_11" function="internal">
        <lane id=":20_11_0" index="0" speed="13.90" length="17.56" shape="3339.53,4069.90 3344.67,4070.99 3348.28,4072.01 3351.80,4072.23 3356.66,4070.92"/>
    </edge>
    <edge id=":20_12" function="internal">
        <lane id=":20_12_0" index="0" speed="13.90" length="19.20" shape="3339.08,4073.17 3344.70,4074.31 3348.66,4075.33 3352.51,4075.48 3357.83,4074.01"/>
    </edge>
    <edge id=":20_13" function="internal">
        <lane id=":20_13_0" index="0" speed="13.90" length="10.39" shape="3339.08,4073.17 3346.49,4075.27 3348.44,4077.12"/>
    </edge>
    <edge id=":20_20" function="internal">
        <lane id=":20_20_0" index="0" speed="13.90" length="16.04" shape="3348.44,4077.12 3350.49,4079.07 3351.08,4084.55 3348.27,4091.72"/>
    </edge>
    <edge id=":20_14" function="internal">
        <lane id=":20_14_0" index="0" speed="13.90" length="5.53" shape="3339.65,4086.86 3340.23,4085.36 3340.11,4084.21 3339.27,4083.41 3337.72,4082.97"/>
    </edge>
    <edge id=":20_15" function="internal">
        <lane id=":20_15_0" index="0" speed="13.90" length="23.46" shape="3342.52,4088.48 3345.68,4082.24 3347.88,4077.81 3350.86,4074.14 3356.37,4070.17"/>
    </edge>
    <edge id=":20_16" function="internal">
        <lane id=":20_16_0" index="0" speed="13.90" length="21.15" shape="3345.39,4090.10 3348.11,4084.36 3349.93,4080.10 3352.59,4076.82 3357.83,4074.01"/>
    </edge>
    <edge id=":21_0" function="internal">
        <lane id=":21_0_0" index="0" speed="13.90" length="20.92" shape="7602.58,5074.82 7599.82,5076.07 7596.52,5078.97 7592.68,5083.49 7588.30,5089.66"/>
    </edge>
    <edge id=":21_1" function="internal">
        <lane id=":21_1_0" index="0" speed="13.90" length="30.16" shape="7602.58,5074.82 7593.76,5076.19 7587.64,5076.68 7581.48,5076.74 7572.54,5076.80"/>
    </edge>
    <edge id=":21_2" function="internal">
        <lane id=":21_2_0" index="0" speed="13.90" length="29.65" shape="7602.01,5071.57 7593.33,5072.91 7587.33,5073.39 7581.29,5073.44 7572.48,5073.50"/>
    </edge>
    <edge id=":21_3" function="internal">
        <lane id=":21_3_0" index="0" speed="13.90" length="29.13" shape="7601.43,5068.32 7592.90,5069.64 7587.01,5070.10 7581.07,5070.15 7572.42,5070.20"/>
    </edge>
    <edge id=":21_4" function="internal">
        <lane id=":21_4_0" index="0" speed="13.90" length="8.51" shape="7601.43,5068.32 7596.66,5068.02 7593.39,5066.22"/>
    </edge>
    <edge id=":21_16" function="internal">
        <lane id=":21_16_0" index="0" speed="13.90" length="16.86" shape="7593.39,5066.22 7591.96,5065.43 7587.33,5060.55 7582.76,5053.39"/>
    </edge>
    <edge id=":21_5" function="internal">
        <lane id=":21_5_0" index="0" speed="13.90" length="13.27" shape="7591.46,5048.65 7594.09,5053.16 7596.35,5056.32 7598.22,5058.12 7599.72,5058.57"/>
    </edge>
    <edge id=":21_6" function="internal">
        <lane id=":21_6_0" index="0" speed="13.90" length="10.17" shape="7588.56,5050.23 7592.09,5059.41 7592.11,5059.74"/>
    </edge>
    <edge id=":21_17" function="internal">