<?xml version="1.0" encoding="UTF-8"?>

<!-- generated on Mon Jan  7 19:32:16 2013 by SUMO netconvert Version 0.16.0
<?xml version="1.0" encoding="UTF-8"?>

<configuration xmlns:xsi="http://www.w3.org/2001/XMLSchema-instance" xsi:noNamespaceSchemaLocation="http://sumo.sf.net/xsd/netconvertConfiguration.xsd">

    <input>
        <sumo-net-file value="poa-arterials-no_u-tl.net.xml"/>
    </input>

    <output>
        <output-file value="poa-arterials-no_u-tl-noint.net.xml"/>
    </output>

    <processing>
        <no-internal-links value="true"/>
        <no-turnarounds value="true"/>
        <offset.disable-normalization value="true"/>
    </processing>

    <report>
        <verbose value="true"/>
    </report>

</configuration>
-->

<net version="0.13" xmlns:xsi="http://www.w3.org/2001/XMLSchema-instance" xsi:noNamespaceSchemaLocation="http://sumo.sf.net/xsd/net_file.xsd">

    <location netOffset="0.00,0.00" convBoundary="0.00,0.00,13653.03,12451.00" origBoundary="0.00,0.00,13653.03,12451.00" projParameter="!"/>

    <edge id="10to8" from="10" to="8" priority="-1">
        <lane id="10to8_0" index="0" speed="13.90" length="1259.34" shape="4394.72,1091.33 4036.26,2298.61"/>
        <lane id="10to8_1" index="1" speed="13.90" length="1259.34" shape="4391.56,1090.39 4033.11,2297.64"/>
        <lane id="10to8_2" index="2" speed="13.90" length="1259.34" shape="4388.39,1089.45 4029.95,2296.67"/>
    </edge>
    <edge id="11to8" from="11" to="8" priority="-1">
        <lane id="11to8_0" index="0" speed="13.90" length="2554.00" shape="5156.72,3.61 4038.86,2299.41"/>
        <lane id="11to8_1" index="1" speed="13.90" length="2554.00" shape="5153.75,2.17 4035.66,2298.43"/>
        <lane id="11to8_2" index="2" speed="13.90" length="2554.00" shape="5150.78,0.72 4032.47,2297.45"/>
    </edge>
    <edge id="12to13" from="12" to="13" priority="-1">
        <lane id="12to13_0" index="0" speed="13.90" length="601.19" shape="6323.21,2294.83 6418.14,2888.48"/>
        <lane id="12to13_1" index="1" speed="13.90" length="601.19" shape="6319.95,2295.35 6414.88,2889.00"/>
        <lane id="12to13_2" index="2" speed="13.90" length="601.19" shape="6316.69,2295.87 6411.62,2889.52"/>
    </edge>
    <edge id="12to14" from="12" to="14" priority="-1">
        <lane id="12to14_0" index="0" speed="13.90" length="905.48" shape="6327.80,2273.60 7227.57,2375.19"/>
        <lane id="12to14_1" index="1" speed="13.90" length="905.48" shape="6327.43,2276.88 7227.20,2378.47"/>
        <lane id="12to14_2" index="2" speed="13.90" length="905.48" shape="6327.06,2280.16 7226.83,2381.75"/>
    </edge>
    <edge id="12to20" from="12" to="20" priority="-1">
        <lane id="12to20_0" index="0" speed="13.90" length="3420.03" shape="6284.63,2306.77 3361.15,4082.71"/>
        <lane id="12to20_1" index="1" speed="13.90" length="3420.03" shape="6282.92,2303.95 3359.95,4079.58"/>
        <lane id="12to20_2" index="2" speed="13.90" length="3420.03" shape="6281.20,2301.13 3358.76,4076.44"/>
    </edge>
    <edge id="12to8" from="12" to="8" priority="-1">
        <lane id="12to8_0" index="0" speed="13.90" length="2233.71" shape="6274.99,2288.94 4041.49,2319.31"/>
        <lane id="12to8_1" index="1" speed="13.90" length="2233.71" shape="6274.95,2285.64 4041.45,2316.01"/>
        <lane id="12to8_2" index="2" speed="13.90" length="2233.71" shape="6274.90,2282.34 4041.40,2312.71"/>
    </edge>
    <edge id="13to12" from="13" to="12" priority="-1">
        <lane id="13to12_0" index="0" speed="13.90" length="601.19" shape="6401.84,2891.08 6306.91,2297.44"/>
        <lane id="13to12_1" index="1" speed="13.90" length="601.19" shape="6405.10,2890.56 6310.17,2296.92"/>
        <lane id="13to12_2" index="2" speed="13.90" length="601.19" shape="6408.36,2890.04 6313.43,2296.39"/>
    </edge>
    <edge id="13to15" from="13" to="15" priority="-1">
        <lane id="13to15_0" index="0" speed="13.90" length="786.03" shape="6427.68,2890.71 7211.35,2829.83"/>
        <lane id="13to15_1" index="1" speed="13.90" length="786.03" shape="6427.93,2894.00 7211.60,2833.12"/>
        <lane id="13to15_2" index="2" speed="13.90" length="786.03" shape="6428.19,2897.29 7211.86,2836.41"/>
    </edge>
    <edge id="13to20" from="13" to="20" priority="-1">
        <lane id="13to20_0" index="0" speed="13.90" length="3261.53" shape="6405.17,2911.57 3361.36,4083.26"/>
        <lane id="13to20_1" index="1" speed="13.90" length="3261.53" shape="6403.98,2908.49 3360.18,4080.18"/>
        <lane id="13to20_2" index="2" speed="13.90" length="3261.53" shape="6402.80,2905.41 3359.01,4077.09"/>
    </edge>
    <edge id="13to21" from="13" to="21" priority="-1">
        <lane id="13to21_0" index="0" speed="13.90" length="2434.32" shape="6426.90,2910.96 7591.46,5048.65"/>
        <lane id="13to21_1" index="1" speed="13.90" length="2434.32" shape="6424.00,2912.53 7588.56,5050.23"/>
        <lane id="13to21_2" index="2" speed="13.90" length="2434.32" shape="6421.10,2914.11 7585.66,5051.81"/>
    </edge>
    <edge id="14to12" from="14" to="12" priority="-1">
        <lane id="14to12_0" index="0" speed="13.90" length="905.48" shape="7225.72,2391.59 6325.95,2290.00"/>
        <lane id="14to12_1" index="1" speed="13.90" length="905.48" shape="7226.09,2388.31 6326.32,2286.72"/>
        <lane id="14to12_2" index="2" speed="13.90" length="905.48" shape="7226.46,2385.03 6326.69,2283.44"/>
    </edge>
    <edge id="14to17" from="14" to="17" priority="-1">
        <lane id="14to17_0" index="0" speed="13.90" length="2854.65" shape="7227.94,2375.19 10061.04,2025.07"/>
        <lane id="14to17_1" index="1" speed="13.90" length="2854.65" shape="7228.35,2378.46 10061.44,2028.34"/>
        <lane id="14to17_2" index="2" speed="13.90" length="2854.65" shape="7228.75,2381.74 10061.85,2031.62"/>
    </edge>
    <edge id="15to13" from="15" to="13" priority="-1">
        <lane id="15to13_0" index="0" speed="13.90" length="786.03" shape="7212.62,2846.28 6428.96,2907.16"/>
        <lane id="15to13_1" index="1" speed="13.90" length="786.03" shape="7212.37,2842.99 6428.70,2903.87"/>
        <lane id="15to13_2" index="2" speed="13.90" length="786.03" shape="7212.11,2839.70 6428.45,2900.58"/>
    </edge>
    <edge id="15to16" from="15" to="16" priority="-1">
        <lane id="15to16_0" index="0" speed="13.90" length="3026.33" shape="7211.57,2829.80 10167.12,2179.11"/>
        <lane id="15to16_1" index="1" speed="13.90" length="3026.33" shape="7212.28,2833.02 10167.83,2182.33"/>
        <lane id="15to16_2" index="2" speed="13.90" length="3026.33" shape="7212.99,2836.24 10168.54,2185.56"/>
    </edge>
    <edge id="16to15" from="16" to="15" priority="-1">
        <lane id="16to15_0" index="0" speed="13.90" length="3026.33" shape="10170.67,2195.23 7215.11,2845.91"/>
        <lane id="16to15_1" index="1" speed="13.90" length="3026.33" shape="10169.96,2192.00 7214.40,2842.69"/>
        <lane id="16to15_2" index="2" speed="13.90" length="3026.33" shape="10169.25,2188.78 7213.70,2839.46"/>
    </edge>
    <edge id="16to17" from="16" to="17" priority="-1">
        <lane id="16to17_0" index="0" speed="13.90" length="159.98" shape="10168.59,2175.06 10070.98,2048.31"/>
        <lane id="16to17_1" index="1" speed="13.90" length="159.98" shape="10171.21,2173.05 10073.59,2046.30"/>
        <lane id="16to17_2" index="2" speed="13.90" length="159.98" shape="10173.82,2171.03 10076.21,2044.29"/>
    </edge>
    <edge id="16to22" from="16" to="22" priority="-1">
        <lane id="16to22_0" index="0" speed="13.90" length="2407.30" shape="10196.74,2190.11 11030.66,4448.36"/>
        <lane id="16to22_1" index="1" speed="13.90" length="2407.30" shape="10193.65,2191.26 11027.57,4449.50"/>
        <lane id="16to22_2" index="2" speed="13.90" length="2407.30" shape="10190.55,2192.40 11024.47,4450.64"/>
    </edge>
    <edge id="17to14" from="17" to="14" priority="-1">
        <lane id="17to14_0" index="0" speed="13.90" length="2854.65" shape="10063.06,2041.44 7229.97,2391.56"/>
        <lane id="17to14_1" index="1" speed="13.90" length="2854.65" shape="10062.66,2038.17 7229.56,2388.29"/>
        <lane id="17to14_2" index="2" speed="13.90" length="2854.65" shape="10062.25,2034.89 7229.16,2385.01"/>
    </edge>
    <edge id="17to16" from="17" to="16" priority="-1">
        <lane id="17to16_0" index="0" speed="13.90" length="159.98" shape="10084.05,2038.25 10181.66,2164.99"/>
        <lane id="17to16_1" index="1" speed="13.90" length="159.98" shape="10081.44,2040.26 10179.05,2167.01"/>
        <lane id="17to16_2" index="2" speed="13.90" length="159.98" shape="10078.82,2042.27 10176.43,2169.02"/>
    </edge>
    <edge id="17to18" from="17" to="18" priority="-1">
        <lane id="17to18_0" index="0" speed="13.90" length="1136.07" shape="10078.07,2019.06 11106.31,1535.99"/>
        <lane id="17to18_1" index="1" speed="13.90" length="1136.07" shape="10079.47,2022.05 11107.72,1538.98"/>
        <lane id="17to18_2" index="2" speed="13.90" length="1136.07" shape="10080.87,2025.04 11109.12,1541.97"/>
    </edge>
    <edge id="18to17" from="18" to="17" priority="-1">
        <lane id="18to17_0" index="0" speed="13.90" length="1136.07" shape="11113.33,1550.93 10085.08,2034.00"/>
        <lane id="18to17_1" index="1" speed="13.90" length="1136.07" shape="11111.92,1547.94 10083.68,2031.01"/>
        <lane id="18to17_2" index="2" speed="13.90" length="1136.07" shape="11110.52,1544.95 10082.27,2028.02"/>
    </edge>
    <edge id="19to20" from="19" to="20" priority="-1">
        <lane id="19to20_0" index="0" speed="13.90" length="694.75" shape="2651.78,3971.45 3339.98,4066.63"/>
        <lane id="19to20_1" index="1" speed="13.90" length="694.75" shape="2651.33,3974.72 3339.53,4069.90"/>
        <lane id="19to20_2" index="2" speed="13.90" length="694.75" shape="2650.88,3977.99 3339.08,4073.17"/>
    </edge>
    <edge id="19to5" from="19" to="5" priority="-1">
        <lane id="19to5_0" index="0" speed="13.90" length="1179.91" shape="2630.17,3986.81 1451.62,4043.54"/>
        <lane id="19to5_1" index="1" speed="13.90" length="1179.91" shape="2630.01,3983.52 1451.46,4040.24"/>
        <lane id="19to5_2" index="2" speed="13.90" length="1179.91" shape="2629.85,3980.22 1451.30,4036.95"/>
    </edge>
    <edge id="19to7" from="19" to="7" priority="-1">
        <lane id="19to7_0" index="0" speed="13.90" length="1243.90" shape="2632.70,3966.10 2774.75,2730.34"/>
        <lane id="19to7_1" index="1" speed="13.90" length="1243.90" shape="2635.98,3966.48 2778.02,2730.72"/>
        <lane id="19to7_2" index="2" speed="13.90" length="1243.90" shape="2639.26,3966.86 2781.30,2731.09"/>
    </edge>
    <edge id="1to2" from="1" to="2" priority="-1">
        <lane id="1to2_0" index="0" speed="13.90" length="678.69" shape="468.85,5904.53 136.39,5312.84"/>
        <lane id="1to2_1" index="1" speed="13.90" length="678.69" shape="471.72,5902.91 139.27,5311.22"/>
        <lane id="1to2_2" index="2" speed="13.90" length="678.69" shape="474.60,5901.29 142.15,5309.61"/>
    </edge>
    <edge id="20to12" from="20" to="12" priority="-1">
        <lane id="20to12_0" index="0" speed="13.90" length="3418.21" shape="3355.18,4067.04 6276.06,2292.67"/>
        <lane id="20to12_1" index="1" speed="13.90" length="3418.21" shape="3356.37,4070.17 6277.78,2295.49"/>
        <lane id="20to12_2" index="2" speed="13.90" length="3418.21" shape="3357.57,4073.31 6279.49,2298.31"/>
    </edge>
    <edge id="20to13" from="20" to="13" priority="-1">
        <lane id="20to13_0" index="0" speed="13.90" length="3261.49" shape="3355.48,4067.84 6399.24,2896.17"/>
        <lane id="20to13_1" index="1" speed="13.90" length="3261.49" shape="3356.66,4070.92 6400.42,2899.25"/>
        <lane id="20to13_2" index="2" speed="13.90" length="3261.49" shape="3357.83,4074.01 6401.61,2902.33"/>
    </edge>
    <edge id="20to19" from="20" to="19" priority="-1">
        <lane id="20to19_0" index="0" speed="13.90" length="694.75" shape="3337.72,4082.97 2649.52,3987.80"/>
        <lane id="20to19_1" index="1" speed="13.90" length="694.75" shape="3338.17,4079.70 2649.97,3984.53"/>
        <lane id="20to19_2" index="2" speed="13.90" length="694.75" shape="3338.63,4076.44 2650.43,3981.26"/>
    </edge>
    <edge id="20to26" from="20" to="26" priority="-1">
        <lane id="20to26_0" index="0" speed="13.90" length="1865.22" shape="3354.02,4094.96 2437.87,5719.68"/>
        <lane id="20to26_1" index="1" speed="13.90" length="1865.22" shape="3351.14,4093.34 2435.00,5718.06"/>
        <lane id="20to26_2" index="2" speed="13.90" length="1865.22" shape="3348.27,4091.72 2432.12,5716.44"/>
    </edge>
    <edge id="21to13" from="21" to="13" priority="-1">
        <lane id="21to13_0" index="0" speed="13.90" length="2434.32" shape="7576.97,5056.54 6412.41,2918.85"/>
        <lane id="21to13_1" index="1" speed="13.90" length="2434.32" shape="7579.86,5054.97 6415.31,2917.27"/>
        <lane id="21to13_2" index="2" speed="13.90" length="2434.32" shape="7582.76,5053.39 6418.20,2915.69"/>
    </edge>
    <edge id="21to22" from="21" to="22" priority="-1">
        <lane id="21to22_0" index="0" speed="13.90" length="3465.74" shape="7599.72,5058.57 11013.00,4457.87"/>
        <lane id="21to22_1" index="1" speed="13.90" length="3465.74" shape="7600.29,5061.82 11013.57,4461.12"/>
        <lane id="21to22_2" index="2" speed="13.90" length="3465.74" shape="7600.86,5065.07 11014.15,4464.37"/>
    </edge>
    <edge id="21to50" from="21" to="50" priority="-1">
        <lane id="21to50_0" index="0" speed="13.90" length="2157.34" shape="7588.30,5089.66 6391.66,6884.70"/>
        <lane id="21to50_1" index="1" speed="13.90" length="2157.34" shape="7585.55,5087.83 6388.92,6882.87"/>
        <lane id="21to50_2" index="2" speed="13.90" length="2157.34" shape="7582.81,5086.00 6386.17,6881.04"/>
    </edge>
    <edge id="21to53" from="21" to="53" priority="-1">
        <lane id="21to53_0" index="0" speed="13.90" length="3330.78" shape="7572.54,5076.80 4242.31,5137.29"/>
        <lane id="21to53_1" index="1" speed="13.90" length="3330.78" shape="7572.48,5073.50 4242.25,5133.99"/>
        <lane id="21to53_2" index="2" speed="13.90" length="3330.78" shape="7572.42,5070.20 4242.19,5130.69"/>
    </edge>
    <edge id="22to16" from="22" to="16" priority="-1">
        <lane id="22to16_0" index="0" speed="13.90" length="2407.30" shape="11015.18,4454.07 10181.26,2195.83"/>
        <lane id="22to16_1" index="1" speed="13.90" length="2407.30" shape="11018.28,4452.93 10184.36,2194.69"/>
        <lane id="22to16_2" index="2" speed="13.90" length="2407.30" shape="11021.38,4451.79 10187.46,2193.54"/>
    </edge>
    <edge id="22to21" from="22" to="21" priority="-1">
        <lane id="22to21_0" index="0" speed="13.90" length="3465.74" shape="11015.86,4474.12 7602.58,5074.82"/>
        <lane id="22to21_1" index="1" speed="13.90" length="3465.74" shape="11015.29,4470.87 7602.01,5071.57"/>
        <lane id="22to21_2" index="2" speed="13.90" length="3465.74" shape="11014.72,4467.62 7601.43,5068.32"/>
    </edge>
    <edge id="22to23" from="22" to="23" priority="-1">
        <lane id="22to23_0" index="0" speed="13.90" length="794.55" shape="11036.00,4456.71 11820.27,4584.17"/>
        <lane id="22to23_1" index="1" speed="13.90" length="794.55" shape="11035.47,4459.97 11819.74,4587.42"/>
        <lane id="22to23_2" index="2" speed="13.90" length="794.55" shape="11034.95,4463.22 11819.21,4590.68"/>
    </edge>
    <edge id="23to22" from="23" to="22" priority="-1">
        <lane id="23to22_0" index="0" speed="13.90" length="794.55" shape="11817.62,4600.45 11033.36,4473.00"/>
        <lane id="23to22_1" index="1" speed="13.90" length="794.55" shape="11818.15,4597.20 11033.89,4469.74"/>
        <lane id="23to22_2" index="2" speed="13.90" length="794.55" shape="11818.68,4593.94 11034.42,4466.48"/>
    </edge>
    <edge id="23to24" from="23" to="24" priority="-1">
        <lane id="23to24_0" index="0" speed="13.90" length="358.24" shape="11846.28,4590.77 12189.11,4694.70"/>
        <lane id="23to24_1" index="1" speed="13.90" length="358.24" shape="11845.32,4593.93 12188.16,4697.86"/>
        <lane id="23to24_2" index="2" speed="13.90" length="358.24" shape="11844.37,4597.09 12187.20,4701.02"/>
    </edge>
    <edge id="23to56" from="23" to="56" priority="-1">
        <lane id="23to56_0" index="0" speed="13.90" length="3473.71" shape="11838.24,4609.38 12362.42,8043.32"/>
        <lane id="23to56_1" index="1" speed="13.90" length="3473.71" shape="11834.98,4609.88 12359.16,8043.81"/>
        <lane id="23to56_2" index="2" speed="13.90" length="3473.71" shape="11831.72,4610.38 12355.89,8044.31"/>
    </edge>
    <edge id="24to23" from="24" to="23" priority="-1">
        <lane id="24to23_0" index="0" speed="13.90" length="358.24" shape="12184.33,4710.50 11841.49,4606.56"/>
        <lane id="24to23_1" index="1" speed="13.90" length="358.24" shape="12185.28,4707.34 11842.45,4603.41"/>
        <lane id="24to23_2" index="2" speed="13.90" length="358.24" shape="12186.24,4704.18 11843.41,4600.25"/>
    </edge>
    <edge id="25to2" from="25" to="2" priority="-1">
        <lane id="25to2_0" index="0" speed="13.90" length="1407.95" shape="1550.67,5142.23 152.14,5304.82"/>
        <lane id="25to2_1" index="1" speed="13.90" length="1407.95" shape="1550.29,5138.95 151.76,5301.54"/>
        <lane id="25to2_2" index="2" speed="13.90" length="1407.95" shape="1549.91,5135.67 151.38,5298.26"/>
    </edge>
    <edge id="25to26" from="25" to="26" priority="-1">
        <lane id="25to26_0" index="0" speed="13.90" length="1014.66" shape="1584.03,5138.19 2413.81,5722.14"/>
        <lane id="25to26_1" index="1" speed="13.90" length="1014.66" shape="1582.13,5140.89 2411.91,5724.83"/>
        <lane id="25to26_2" index="2" speed="13.90" length="1014.66" shape="1580.23,5143.59 2410.01,5727.53"/>
    </edge>
    <edge id="25to37" from="25" to="37" priority="-1">
        <lane id="25to37_0" index="0" speed="13.90" length="841.13" shape="1570.84,5153.69 1602.53,5994.22"/>
        <lane id="25to37_1" index="1" speed="13.90" length="841.13" shape="1567.54,5153.81 1599.23,5994.35"/>
        <lane id="25to37_2" index="2" speed="13.90" length="841.13" shape="1564.24,5153.94 1595.94,5994.47"/>
    </edge>
    <edge id="25to4" from="25" to="4" priority="-1">
        <lane id="25to4_0" index="0" speed="13.90" length="581.99" shape="1552.41,5122.31 1491.79,4543.58"/>
        <lane id="25to4_1" index="1" speed="13.90" length="581.99" shape="1555.70,5121.97 1495.06,4543.11"/>
        <lane id="25to4_2" index="2" speed="13.90" length="581.99" shape="1558.98,5121.62 1498.34,4542.76"/>
    </edge>
    <edge id="26to20" from="26" to="20" priority="-1">
        <lane id="26to20_0" index="0" speed="13.90" length="1865.22" shape="2423.50,5711.57 3339.65,4086.86"/>
        <lane id="26to20_1" index="1" speed="13.90" length="1865.22" shape="2426.37,5713.19 3342.52,4088.48"/>
        <lane id="26to20_2" index="2" speed="13.90" length="1865.22" shape="2429.25,5714.81 3345.39,4090.10"/>
    </edge>
    <edge id="26to25" from="26" to="25" priority="-1">
        <lane id="26to25_0" index="0" speed="13.90" length="1014.66" shape="2404.31,5735.63 1574.53,5151.68"/>
        <lane id="26to25_1" index="1" speed="13.90" length="1014.66" shape="2406.21,5732.93 1576.43,5148.98"/>
        <lane id="26to25_2" index="2" speed="13.90" length="1014.66" shape="2408.11,5730.23 1578.33,5146.29"/>
    </edge>
    <edge id="26to27" from="26" to="27" priority="-1">
        <lane id="26to27_0" index="0" speed="13.90" length="533.88" shape="2440.33,5723.02 2962.24,5610.62"/>
        <lane id="26to27_1" index="1" speed="13.90" length="533.88" shape="2441.03,5726.24 2962.94,5613.84"/>
        <lane id="26to27_2" index="2" speed="13.90" length="533.88" shape="2441.72,5729.47 2963.63,5617.07"/>
    </edge>
    <edge id="26to29" from="26" to="29" priority="-1">
        <lane id="26to29_0" index="0" speed="13.90" length="305.78" shape="2431.54,5745.19 2540.95,6030.73"/>
        <lane id="26to29_1" index="1" speed="13.90" length="305.78" shape="2428.46,5746.37 2537.86,6031.91"/>
        <lane id="26to29_2" index="2" speed="13.90" length="305.78" shape="2425.38,5747.55 2534.78,6033.09"/>
    </edge>
    <edge id="27to26" from="27" to="26" priority="-1">
        <lane id="27to26_0" index="0" speed="13.90" length="533.88" shape="2965.72,5626.75 2443.81,5739.15"/>
        <lane id="27to26_1" index="1" speed="13.90" length="533.88" shape="2965.02,5623.52 2443.11,5735.92"/>
        <lane id="27to26_2" index="2" speed="13.90" length="533.88" shape="2964.33,5620.29 2442.42,5732.70"/>
    </edge>
    <edge id="27to28" from="27" to="28" priority="-1">
        <lane id="27to28_0" index="0" speed="13.90" length="94.93" shape="2975.01,5607.35 3057.99,5561.23"/>
        <lane id="27to28_1" index="1" speed="13.90" length="94.93" shape="2976.62,5610.23 3059.59,5564.12"/>
        <lane id="27to28_2" index="2" speed="13.90" length="94.93" shape="2978.22,5613.12 3061.19,5567.00"/>
    </edge>
    <edge id="28to27" from="28" to="27" priority="-1">
        <lane id="28to27_0" index="0" speed="13.90" length="94.93" shape="3066.00,5575.65 2983.03,5621.77"/>
        <lane id="28to27_1" index="1" speed="13.90" length="94.93" shape="3064.40,5572.77 2981.43,5618.89"/>
        <lane id="28to27_2" index="2" speed="13.90" length="94.93" shape="3062.79,5569.89 2979.82,5616.00"/>
    </edge>
    <edge id="28to30" from="28" to="30" priority="-1">
        <lane id="28to30_0" index="0" speed="13.90" length="471.81" shape="3076.42,5576.51 3150.83,6042.42"/>
        <lane id="28to30_1" index="1" speed="13.90" length="471.81" shape="3073.16,5577.03 3147.57,6042.94"/>
        <lane id="28to30_2" index="2" speed="13.90" length="471.81" shape="3069.91,5577.55 3144.31,6043.46"/>
    </edge>
    <edge id="28to54" from="28" to="54" priority="-1">
        <lane id="28to54_0" index="0" speed="13.90" length="762.63" shape="3070.53,5554.72 3753.25,5214.85"/>
        <lane id="28to54_1" index="1" speed="13.90" length="762.63" shape="3072.01,5557.68 3754.72,5217.81"/>
        <lane id="28to54_2" index="2" speed="13.90" length="762.63" shape="3073.48,5560.63 3756.19,5220.76"/>
    </edge>
    <edge id="29to26" from="29" to="26" priority="-1">
        <lane id="29to26_0" index="0" speed="13.90" length="305.78" shape="2525.54,6036.64 2416.14,5751.10"/>
        <lane id="29to26_1" index="1" speed="13.90" length="305.78" shape="2528.62,6035.46 2419.22,5749.92"/>
        <lane id="29to26_2" index="2" speed="13.90" length="305.78" shape="2531.70,6034.28 2422.30,5748.73"/>
    </edge>
    <edge id="29to35" from="29" to="35" priority="-1">
        <lane id="29to35_0" index="0" speed="13.90" length="308.72" shape="2545.85,6049.17 2549.71,6357.86"/>
        <lane id="29to35_1" index="1" speed="13.90" length="308.72" shape="2542.55,6049.21 2546.41,6357.90"/>
        <lane id="29to35_2" index="2" speed="13.90" length="308.72" shape="2539.25,6049.25 2543.11,6357.94"/>
    </edge>
    <edge id="2to25" from="2" to="25" priority="-1">
        <lane id="2to25_0" index="0" speed="13.90" length="1407.95" shape="150.24,5288.43 1548.77,5125.84"/>
        <lane id="2to25_1" index="1" speed="13.90" length="1407.95" shape="150.62,5291.71 1549.15,5129.12"/>
        <lane id="2to25_2" index="2" speed="13.90" length="1407.95" shape="151.00,5294.98 1549.53,5132.39"/>
    </edge>
    <edge id="2to3" from="2" to="3" priority="-1">
        <lane id="2to3_0" index="0" speed="13.90" length="544.75" shape="130.68,5283.84 181.15,4741.43"/>
        <lane id="2to3_1" index="1" speed="13.90" length="544.75" shape="133.97,5284.15 184.43,4741.74"/>
        <lane id="2to3_2" index="2" speed="13.90" length="544.75" shape="137.25,5284.45 187.72,4742.04"/>
    </edge>
    <edge id="30to32" from="30" to="32" priority="-1">
        <lane id="30to32_0" index="0" speed="13.90" length="590.63" shape="3156.46,6047.54 3745.48,6091.01"/>
        <lane id="30to32_1" index="1" speed="13.90" length="590.63" shape="3156.22,6050.83 3745.24,6094.30"/>
        <lane id="30to32_2" index="2" speed="13.90" length="590.63" shape="3155.97,6054.12 3745.00,6097.59"/>
    </edge>
    <edge id="30to34" from="30" to="34" priority="-1">
        <lane id="30to34_0" index="0" speed="13.90" length="290.44" shape="3152.33,6057.82 3100.10,6343.53"/>
        <lane id="30to34_1" index="1" speed="13.90" length="290.44" shape="3149.08,6057.23 3096.86,6342.94"/>
        <lane id="30to34_2" index="2" speed="13.90" length="290.44" shape="3145.84,6056.63 3093.61,6342.34"/>
    </edge>
    <edge id="31to27" from="31" to="27" priority="-1">
        <lane id="31to27_0" index="0" speed="13.90" length="435.22" shape="3004.37,6063.16 2969.24,5629.36"/>
        <lane id="31to27_1" index="1" speed="13.90" length="435.22" shape="3007.66,6062.89 2972.52,5629.09"/>
        <lane id="31to27_2" index="2" speed="13.90" length="435.22" shape="3010.95,6062.62 2975.81,5628.83"/>
    </edge>
    <edge id="31to30" from="31" to="30" priority="-1">
        <lane id="31to30_0" index="0" speed="13.90" length="128.65" shape="3014.38,6065.36 3141.71,6046.99"/>
        <lane id="31to30_1" index="1" speed="13.90" length="128.65" shape="3014.85,6068.63 3142.18,6050.26"/>
        <lane id="31to30_2" index="2" speed="13.90" length="128.65" shape="3015.32,6071.89 3142.65,6053.53"/>
    </edge>
    <edge id="32to44" from="32" to="44" priority="-1">
        <lane id="32to44_0" index="0" speed="13.90" length="583.11" shape="3753.48,6105.01 3533.74,6645.14"/>
        <lane id="32to44_1" index="1" speed="13.90" length="583.11" shape="3750.43,6103.77 3530.69,6643.89"/>
        <lane id="32to44_2" index="2" speed="13.90" length="583.11" shape="3747.37,6102.53 3527.63,6642.65"/>
    </edge>
    <edge id="32to48" from="32" to="48" priority="-1">
        <lane id="32to48_0" index="0" speed="13.90" length="969.45" shape="3760.88,6097.83 4604.50,6575.46"/>
        <lane id="32to48_1" index="1" speed="13.90" length="969.45" shape="3759.25,6100.70 4602.88,6578.33"/>
        <lane id="32to48_2" index="2" speed="13.90" length="969.45" shape="3757.63,6103.57 4601.25,6581.20"/>
    </edge>
    <edge id="33to31" from="33" to="31" priority="-1">
        <lane id="33to31_0" index="0" speed="13.90" length="190.06" shape="3000.85,6265.66 3005.22,6075.64"/>
        <lane id="33to31_1" index="1" speed="13.90" length="190.06" shape="3004.15,6265.73 3008.52,6075.72"/>
        <lane id="33to31_2" index="2" speed="13.90" length="190.06" shape="3007.45,6265.81 3011.81,6075.79"/>
    </edge>
    <edge id="33to34" from="33" to="34" priority="-1">
        <lane id="33to34_0" index="0" speed="13.90" length="100.82" shape="3015.41,6275.41 3089.58,6343.69"/>
        <lane id="33to34_1" index="1" speed="13.90" length="100.82" shape="3013.17,6277.83 3087.35,6346.12"/>
        <lane id="33to34_2" index="2" speed="13.90" length="100.82" shape="3010.94,6280.26 3085.11,6348.55"/>
    </edge>
    <edge id="34to42" from="34" to="42" priority="-1">
        <lane id="34to42_0" index="0" speed="13.90" length="189.43" shape="3096.23,6361.77 3042.92,6543.55"/>
        <lane id="34to42_1" index="1" speed="13.90" length="189.43" shape="3093.06,6360.85 3039.76,6542.62"/>
        <lane id="34to42_2" index="2" speed="13.90" length="189.43" shape="3089.89,6359.92 3036.59,6541.69"/>
    </edge>
    <edge id="34to44" from="34" to="44" priority="-1">
        <lane id="34to44_0" index="0" speed="13.90" length="509.31" shape="3104.07,6354.88 3523.44,6643.90"/>
        <lane id="34to44_1" index="1" speed="13.90" length="509.31" shape="3102.20,6357.60 3521.57,6646.62"/>
        <lane id="34to44_2" index="2" speed="13.90" length="509.31" shape="3100.33,6360.32 3519.69,6649.34"/>
    </edge>
    <edge id="35to29" from="35" to="29" priority="-1">
        <lane id="35to29_0" index="0" speed="13.90" length="308.72" shape="2533.22,6358.07 2529.35,6049.37"/>
        <lane id="35to29_1" index="1" speed="13.90" length="308.72" shape="2536.52,6358.02 2532.65,6049.33"/>
        <lane id="35to29_2" index="2" speed="13.90" length="308.72" shape="2539.81,6357.98 2535.95,6049.29"/>
    </edge>
    <edge id="35to36" from="35" to="36" priority="-1">
        <lane id="35to36_0" index="0" speed="13.90" length="342.30" shape="2554.70,6361.77 2888.06,6439.49"/>
        <lane id="35to36_1" index="1" speed="13.90" length="342.30" shape="2553.95,6364.98 2887.31,6442.70"/>
        <lane id="35to36_2" index="2" speed="13.90" length="342.30" shape="2553.20,6368.19 2886.56,6445.92"/>
    </edge>
    <edge id="35to41" from="35" to="41" priority="-1">
        <lane id="35to41_0" index="0" speed="13.90" length="419.86" shape="2547.25,6380.19 2460.00,6790.88"/>
        <lane id="35to41_1" index="1" speed="13.90" length="419.86" shape="2544.02,6379.50 2456.77,6790.19"/>
        <lane id="35to41_2" index="2" speed="13.90" length="419.86" shape="2540.79,6378.82 2453.54,6789.51"/>
    </edge>
    <edge id="36to33" from="36" to="33" priority="-1">
        <lane id="36to33_0" index="0" speed="13.90" length="188.30" shape="2893.79,6435.36 2999.46,6279.51"/>
        <lane id="36to33_1" index="1" speed="13.90" length="188.30" shape="2896.52,6437.22 3002.19,6281.36"/>
        <lane id="36to33_2" index="2" speed="13.90" length="188.30" shape="2899.25,6439.07 3004.92,6283.22"/>
    </edge>
    <edge id="36to35" from="36" to="35" priority="-1">
        <lane id="36to35_0" index="0" speed="13.90" length="342.30" shape="2884.31,6455.56 2550.95,6377.84"/>
        <lane id="36to35_1" index="1" speed="13.90" length="342.30" shape="2885.06,6452.34 2551.70,6374.62"/>
        <lane id="36to35_2" index="2" speed="13.90" length="342.30" shape="2885.81,6449.13 2552.45,6371.41"/>
    </edge>
    <edge id="36to42" from="36" to="42" priority="-1">
        <lane id="36to42_0" index="0" speed="13.90" length="163.19" shape="2902.06,6444.96 3032.47,6543.06"/>
        <lane id="36to42_1" index="1" speed="13.90" length="163.19" shape="2900.08,6447.60 3030.49,6545.70"/>