<routes>
    <vehicle id="aux0" depart="2">
        <route edges="6to5 5to4 4to25 25to26 26to29 29to35 35to36 36to33 33to34 34to44 44to46 46to49 49to51 51to52" />
    </vehicle>
    <vehicle id="aux1" depart="2">
        <route edges="50to51 51to49 49to59 59to60 60to61 61to62 62to61 61to60" />
    </vehicle>
    <vehicle id="aux2" depart="2">
        <route edges="52to51 51to49 49to46 46to44 44to43 43to45 45to41 41to40 40to38 38to37" />
    </vehicle>
    <vehicle id="aux3" depart="2">
        <route edges="57to56 56to55 55to59 59to60 60to43 43to42 42to36 36to35 35to29 29to26 26to25" />
    </vehicle>
    <vehicle id="aux5" depart="3">
        <route edges="50to49 49to51 51to52" />
    </vehicle>
    <vehicle id="aux6" depart="3">
        <route edges="24to23 23to22 22to16 16to17 17to14 14to12 12to8 8to10" />
    </vehicle>
    <vehicle id="aux7" depart="3">
        <route edges="62to61 61to45 45to41 41to40 40to38 38to37" />
    </vehicle>
    <vehicle id="aux14" depart="4">
        <route edges="37to25 25to26 26to29 29to35 35to36 36to33 33to31 31to27 27to26 26to25" />
    </vehicle>
    <vehicle id="aux4" depart="4">
        <route edges="52to51 51to50 50to47 47to48 48to53 53to21 21to50" />
    </vehicle>
    <vehicle id="aux8" depart="4">
        <route edges="6to5 5to4 4to25 25to26 26to27 27to28 28to54 54to53 53to21 21to50" />
    </vehicle>
    <vehicle id="aux9" depart="4">
        <route edges="50to51 51to49 49to46 46to44 44to43 43to45 45to41 41to40 40to38 38to37" />
    </vehicle>
    <vehicle id="aux10" depart="5">
        <route edges="62to61 61to60 60to59 59to49 49to50 50to21 21to22 22to16 16to17 17to14" />
    </vehicle>
    <vehicle id="aux12" depart="5">
        <route edges="24to23 23to22 22to16 16to17 17to18" />
    </vehicle>
    <vehicle id="aux16" depart="5">
        <route edges="18to17 17to14" />
    </vehicle>
    <vehicle id="aux18" depart="5">
        <route edges="14to17 17to16 16to15 15to13 13to20 20to19 19to5 5to6" />
    </vehicle>
    <vehicle id="aux13" depart="6">
        <route edges="52to51 51to49 49to50" />
    </vehicle>
    <vehicle id="aux20" depart="6">
        <route edges="37to25 25to4 4to5 5to6" />
    </vehicle>
    <vehicle id="aux21" depart="6">
        <route edges="50to49 49to51 51to50 50to21 21to13 13to12 12to8 8to10" />
    </vehicle>
    <vehicle id="aux22" depart="6">
        <route edges="6to5 5to4 4to25 25to26 26to29 29to35 35to36 36to33 33to34 34to44 44to46 46to49 49to51 51to52" />
    </vehicle>
    <vehicle id="aux24" depart="6">
        <route edges="51to50 50to21 21to13 13to12 12to8 8to11" />
    </vehicle>
    <vehicle id="aux11" depart="7">
        <route edges="62to61 61to60 60to59 59to49 49to51 51to52" />
    </vehicle>
    <vehicle id="aux17" depart="7">
        <route edges="18to17 17to16 16to22 22to23 23to56 56to57" />
    </vehicle>
    <vehicle id="aux25" depart="7">
        <route edges="60to43 43to42 42to36 36to35 35to29 29to26 26to25 25to4 4to5 5to6" />
    </vehicle>
    <vehicle id="aux26" depart="7">
        <route edges="57to56 56to55 55to59 59to49 49to51 51to52" />
    </vehicle>
    <vehicle id="aux27" depart="7">
        <route edges="60to59 59to49 49to51 51to50" />
    </vehicle>
    <vehicle id="aux23" depart="8">
        <route edges="52to51 51to49 49to46 46to44 44to43 43to42 42to36 36to35 35to29 29to26 26to25 25to4 4to5 5to6" />
    </vehicle>
    <vehicle id="aux29" depart="8">
        <route edges="6to5 5to19 19to20 20to12 12to14" />
    </vehicle>
    <vehicle id="aux32" depart="8">
        <route edges="50to49 49to51 51to50 50to21 21to22 22to16 16to17 17to18" />
    </vehicle>
    <vehicle id="aux33" depart="8">
        <route edges="37to38 38to29 29to26 26to25" />
    </vehicle>
    <vehicle id="aux15" depart="9">
        <route edges="62to61 61to60 60to59 59to49 49to51 51to50" />
    </vehicle>
    <vehicle id="aux30" depart="9">
        <route edges="57to56 56to55 55to59 59to60 60to43 43to45 45to41 41to40 40to38 38to37" />
    </vehicle>
    <vehicle id="aux36" depart="9">
        <route edges="51to49 49to46 46to44 44to43 43to42 42to36 36to35 35to29 29to26 26to25 25to4 4to5 5to6" />
    </vehicle>
    <vehicle id="aux37" depart="9">
        <route edges="14to12 12to13 13to21 21to50 50to51 51to52" />
    </vehicle>
    <vehicle id="aux38" depart="9">
        <route edges="10to8 8to12 12to14 14to17 17to18" />
    </vehicle>
    <vehicle id="aux39" depart="9">
        <route edges="24to23 23to22 22to21 21to50 50to49 49to59 59to60 60to61 61to62" />
    </vehicle>
    <vehicle id="aux31" depart="10">
        <route edges="6to5 5to4 4to25 25to26 26to27 27to28 28to54 54to53 53to21 21to22 22to23 23to24" />
    </vehicle>
    <vehicle id="aux41" depart="10">
        <route edges="37to25 25to26 26to29 29to35 35to36 36to42 42to43 43to60 60to59 59to55 55to56 56to57" />
    </vehicle>
    <vehicle id="aux42" depart="10">
        <route edges="60to61 61to45 45to41 41to35 35to29 29to26 26to25 25to4 4to5 5to6" />
    </vehicle>
    <vehicle id="aux43" depart="10">
        <route edges="50to51 51to52" />
    </vehicle>
    <vehicle id="aux19" depart="11">
        <route edges="62to61 61to60 60to59 59to49 49to51 51to52" />
    </vehicle>
    <vehicle id="aux40" depart="11">
        <route edges="24to23 23to56 56to55 55to58" />
    </vehicle>
    <vehicle id="aux44" depart="11">
        <route edges="14to12 12to20 20to26 26to29 29to35 35to41 41to40 40to38 38to37" />
    </vehicle>
    <vehicle id="aux45" depart="11">
        <route edges="11to8 8to10" />
    </vehicle>
    <vehicle id="aux46" depart="11">
        <route edges="14to17 17to18" />
    </vehicle>
    <vehicle id="aux47" depart="11">
        <route edges="51to50 50to49 49to46 46to44 44to43 43to60" />
    </vehicle>
    <vehicle id="aux48" depart="11">
        <route edges="10to8 8to7 7to19 19to20 20to26 26to29 29to35 35to41 41to40 40to38 38to37" />
    </vehicle>
    <vehicle id="aux34" depart="12">
        <route edges="6to5 5to3 3to2 2to25" />
    </vehicle>
    <vehicle id="aux53" depart="12">
        <route edges="52to51 51to49 49to59 59to55 55to56 56to57" />
    </vehicle>
    <vehicle id="aux54" depart="12">
        <route edges="51to49 49to50 50to51 51to52 52to51 51to50" />
    </vehicle>
    <vehicle id="aux28" depart="13">
        <route edges="62to61 61to45 45to41 41to40 40to38 38to37" />
    </vehicle>
    <vehicle id="aux49" depart="13">
        <route edges="24to23 23to22 22to21 21to53 53to54 54to28 28to27 27to26 26to25 25to4 4to5 5to6" />
    </vehicle>
    <vehicle id="aux51" depart="13">
        <route edges="14to17 17to16 16to15 15to13 13to20 20to19 19to5 5to4 4to25" />
    </vehicle>
    <vehicle id="aux52" depart="13">
        <route edges="10to8 8to7 7to19 19to5 5to4 4to25" />
    </vehicle>
    <vehicle id="aux55" depart="13">
        <route edges="60to61 61to45 45to41 41to35 35to29 29to26 26to20 20to19 19to7 7to8 8to10" />
    </vehicle>
    <vehicle id="aux57" depart="13">
        <route edges="57to56 56to55 55to59 59to60 60to61 61to58" />
    </vehicle>
    <vehicle id="aux58" depart="13">
        <route edges="58to55 55to59 59to49 49to50 50to21 21to13 13to12 12to8 8to11" />
    </vehicle>
    <vehicle id="aux63" depart="14">
        <route edges="37to25 25to4 4to5 5to6" />
    </vehicle>
    <vehicle id="aux64" depart="14">
        <route edges="14to12 12to13 13to21 21to50 50to49 49to51" />
    </vehicle>
    <vehicle id="aux35" depart="15">
        <route edges="62to61 61to45 45to41 41to40 40to38 38to37" />
    </vehicle>
    <vehicle id="aux59" depart="15">
        <route edges="24to23 23to22 22to21 21to50 50to51 51to52" />
    </vehicle>
    <vehicle id="aux65" depart="15">
        <route edges="50to21 21to53 53to54 54to32 32to44 44to43 43to60" />
    </vehicle>
    <vehicle id="aux68" depart="16">
        <route edges="14to12 12to20 20to26 26to29 29to35 35to36 36to42 42to43 43to45 45to61 61to60" />
    </vehicle>
    <vehicle id="aux70" depart="16">
        <route edges="6to5 5to4 4to25 25to26 26to29 29to35 35to36 36to42 42to43 43to60" />
    </vehicle>
    <vehicle id="aux74" depart="16">
        <route edges="14to17 17to16 16to22 22to21 21to50 50to49 49to59 59to60 60to61 61to62" />
    </vehicle>
    <vehicle id="aux50" depart="17">
        <route edges="62to61 61to60 60to59 59to49 49to50 50to21 21to22 22to16 16to17 17to18" />
    </vehicle>
    <vehicle id="aux61" depart="17">
        <route edges="24to23 23to22 22to21 21to53 53to54 54to28 28to27 27to26 26to29 29to35 35to41 41to40 40to38 38to37" />
    </vehicle>
    <vehicle id="aux75" depart="17">
        <route edges="57to56 56to23 23to22 22to16 16to17 17to14 14to12 12to8 8to11" />
    </vehicle>
    <vehicle id="aux76" depart="17">
        <route edges="10to8 8to11" />
    </vehicle>
    <vehicle id="aux77" depart="17">
        <route edges="11to8 8to7 7to19 19to5 5to3 3to2 2to25" />
    </vehicle>
    <vehicle id="aux78" depart="17">
        <route edges="52to51 51to50 50to21 21to13 13to12 12to8 8to11" />
    </vehicle>
    <vehicle id="aux80" depart="18">
        <route edges="6to5 5to19 19to20 20to12 12to14 14to17 17to18" />
    </vehicle>
    <vehicle id="aux81" depart="18">
        <route edges="50to47 47to46 46to49 49to59 59to60 60to61 61to62" />
    </vehicle>
    <vehicle id="aux82" depart="18">
        <route edges="51to50 50to47 47to48 48to53 53to54 54to28 28to27 27to26 26to25 25to4 4to5 5to6" />
    </vehicle>
    <vehicle id="aux83" depart="18">
        <route edges="37to25 25to2 2to3 3to5 5to4 4to25" />
    </vehicle>
    <vehicle id="aux56" depart="19">
        <route edges="62to61 61to60 60to59 59to49 49to51 51to52" />
    </vehicle>
    <vehicle id="aux67" depart="19">
        <route edges="24to23 23to22 22to21 21to53 53to54 54to28 28to27 27to26 26to25 25to37" />
    </vehicle>
    <vehicle id="aux84" depart="19">
        <route edges="10to8 8to7 7to19 19to5 5to4 4to25 25to37" />
    </vehicle>
    <vehicle id="aux87" depart="19">
        <route edges="18to17 17to14 14to12 12to20 20to19 19to5 5to6" />
    </vehicle>
    <vehicle id="aux88" depart="19">
        <route edges="57to56 56to23 23to22 22to16 16to17 17to14 14to12 12to8 8to11" />
    </vehicle>
    <vehicle id="aux89" depart="19">
        <route edges="14to12 12to20 20to26 26to25" />
    </vehicle>
    <vehicle id="aux91" depart="20">
        <route edges="14to17 17to16 16to22 22to21 21to50 50to51 51to52" />
    </vehicle>
    <vehicle id="aux92" depart="20">
        <route edges="6to5 5to4 4to25 25to26 26to29 29to35 35to36 36to33 33to34 34to44 44to46 46to49 49to51" />
    </vehicle>
    <vehicle id="aux94" depart="20">
        <route edges="11to8 8to12 12to13 13to21 21to50 50to51 51to52" />
    </vehicle>
    <vehicle id="aux60" depart="21">
        <route edges="62to61 61to60 60to43 43to42 42to36 36to35 35to29 29to26 26to25 25to4 4to5 5to6" />
    </vehicle>
    <vehicle id="aux69" depart="21">
        <route edges="24to23 23to22 22to16 16to17 17to18" />
    </vehicle>
    <vehicle id="aux90" depart="21">
        <route edges="10to8 8to12 12to13 13to15 15to16 16to17 17to14" />
    </vehicle>
    <vehicle id="aux95" depart="21">
        <route edges="50to51 51to52 52to51 51to50 50to21 21to22 22to16 16to17 17to18" />
    </vehicle>
    <vehicle id="aux98" depart="21">
        <route edges="60to43 43to42 42to36 36to35 35to29 29to26 26to25 25to4 4to5 5to6" />
    </vehicle>
    <vehicle id="aux100" depart="22">
        <route edges="52to51 51to49 49to59 59to60 60to61 61to58" />
    </vehicle>
    <vehicle id="aux102" depart="22">
        <route edges="57to56 56to55 55to59 59to60 60to43 43to42 42to36 36to35 35to29 29to26 26to25 25to37" />
    </vehicle>
    <vehicle id="aux103" depart="22">
        <route edges="6to5 5to4 4to25 25to26 26to29 29to35 35to36 36to42 42to43 43to60 60to61 61to58" />
    </vehicle>
    <vehicle id="aux104" depart="22">
        <route edges="58to61 61to60 60to59 59to49 49to50 50to21 21to22 22to16 16to17 17to18" />
    </vehicle>
    <vehicle id="aux99" depart="22">
        <route edges="11to8 8to10" />
    </vehicle>
    <vehicle id="aux105" depart="23">
        <route edges="18to17 17to14 14to12 12to20 20to26 26to25 25to37" />
    </vehicle>
    <vehicle id="aux106" depart="23">
        <route edges="50to21 21to53 53to54 54to28 28to27 27to26 26to29 29to35 35to41 41to40 40to1 1to2 2to25" />
    </vehicle>
    <vehicle id="aux109" depart="23">
        <route edges="50to47 47to48 48to53 53to54 54to28 28to27 27to26 26to20 20to19 19to5 5to4 4to25" />
    </vehicle>
    <vehicle id="aux62" depart="23">
        <route edges="62to61 61to60 60to59 59to49 49to51 51to50" />
    </vehicle>
    <vehicle id="aux71" depart="23">
        <route edges="24to23 23to56 56to57" />
    </vehicle>
    <vehicle id="aux96" depart="23">
        <route edges="10to8 8to12 12to14 14to17 17to16 16to22 22to23 23to24" />
    </vehicle>
    <vehicle id="aux114" depart="24">
        <route edges="52to51 51to49 49to46 46to44 44to43 43to42 42to36 36to35 35to29 29to26 26to25 25to37" />
    </vehicle>
    <vehicle id="aux110" depart="25">
        <route edges="18to17 17to16 16to22 22to21 21to50 50to51 51to52 52to51 51to50" />
    </vehicle>
    <vehicle id="aux116" depart="25">
        <route edges="11to8 8to12 12to13 13to21 21to50" />
    </vehicle>
    <vehicle id="aux118" depart="25">
        <route edges="6to5 5to4 4to25 25to26 26to29 29to35 35to36 36to33 33to34 34to44 44to46 46to49 49to51 51to52" />
    </vehicle>
    <vehicle id="aux66" depart="25">
        <route edges="62to61 61to60 60to59 59to49 49to51 51to50" />
    </vehicle>
    <vehicle id="aux73" depart="25">
        <route edges="24to23 23to22 22to21 21to13 13to12 12to14" />
    </vehicle>
    <vehicle id="aux97" depart="25">
        <route edges="10to8 8to12 12to13 13to21 21to50" />
    </vehicle>
    <vehicle id="aux122" depart="26">
        <route edges="52to51 51to50 50to47 47to48 48to53 53to21 21to50" />
    </vehicle>
    <vehicle id="aux123" depart="26">
        <route edges="57to56 56to55 55to59 59to60 60to61 61to62" />
    </vehicle>
    <vehicle id="aux124" depart="26">
        <route edges="37to25 25to4 4to5 5to19 19to7 7to8 8to10" />
    </vehicle>
    <vehicle id="aux112" depart="27">
        <route edges="18to17 17to14 14to12 12to20 20to26 26to29 29to35 35to36 36to42 42to43 43to60" />
    </vehicle>
    <vehicle id="aux117" depart="27">
        <route edges="11to8 8to10" />
    </vehicle>
    <vehicle id="aux119" depart="27">
        <route edges="10to8 8to7 7to19 19to5 5to4 4to25 25to37" />
    </vehicle>
    <vehicle id="aux120" depart="27">
        <route edges="6to5 5to4 4to25 25to37" />
    </vehicle>
    <vehicle id="aux127" depart="27">
        <route edges="58to55 55to59 59to49 49to50" />
    </vehicle>
    <vehicle id="aux72" depart="27">
        <route edges="62to61 61to45 45to41 41to40 40to38 38to37" />
    </vehicle>
    <vehicle id="aux86" depart="27">
        <route edges="24to23 23to22 22to16 16to17 17to14 14to12 12to8 8to10" />
    </vehicle>
    <vehicle id="aux125" depart="28">
        <route edges="57to56 56to55 55to59 59to49 49to51 51to52" />
    </vehicle>
    <vehicle id="aux133" depart="28">
        <route edges="50to51 51to52" />
    </vehicle>
    <vehicle id="aux134" depart="28">
        <route edges="52to51 51to49 49to59 59to60 60to61 61to62 62to61 61to60" />
    </vehicle>
    <vehicle id="aux101" depart="29">
        <route edges="24to23 23to22 22to21 21to50 50to49 49to59 59to60 60to61 61to62" />
    </vehicle>
    <vehicle id="aux115" depart="29">
        <route edges="18to17 17to14 14to12 12to20 20to26 26to25 25to37" />
    </vehicle>
    <vehicle id="aux126" depart="29">
        <route edges="10to8 8to12 12to13 13to21 21to50 50to51 51to52" />
    </vehicle>
    <vehicle id="aux131" depart="29">
        <route edges="6to5 5to4 4to25 25to37" />
    </vehicle>
    <vehicle id="aux135" depart="29">
        <route edges="25to2 2to3 3to5 5to19 19to20 20to12 12to14 14to17 17to18" />
    </vehicle>
    <vehicle id="aux136" depart="29">
        <route edges="50to49 49to51 51to52" />
    </vehicle>
    <vehicle id="aux138" depart="29">
        <route edges="50to47 47to46 46to49 49to59 59to55 55to56 56to57" />
    </vehicle>
    <vehicle id="aux79" depart="29">
        <route edges="62to61 61to58" />
    </vehicle>
    <vehicle id="aux139" depart="30">
        <route edges="57to56 56to55 55to59 59to60 60to43 43to42 42to36 36to35 35to29 29to26 26to25 25to4 4to5 5to6" />
    </vehicle>
    <vehicle id="aux143" depart="30">
        <route edges="58to61 61to60 60to59 59to49 49to50 50to21 21to22 22to16 16to17 17to18" />
    </vehicle>
    <vehicle id="aux144" depart="30">
        <route edges="14to17 17to16 16to15 15to13 13to20 20to26 26to29 29to35 35to41 41to40 40to38 38to37" />
    </vehicle>
    <vehicle id="aux107" depart="31">
        <route edges="24to23 23to22 22to21 21to53 53to54 54to28 28to27 27to26 26to25 25to37" />
    </vehicle>
    <vehicle id="aux129" depart="31">
        <route edges="18to17 17to16 16to22 22to21 21to50 50to51" />
    </vehicle>
    <vehicle id="aux137" depart="31">
        <route edges="6to5 5to4 4to25 25to26 26to29 29to35 35to41 41to40 40to38 38to37" />
    </vehicle>
    <vehicle id="aux145" depart="31">
        <route edges="11to8 8to12 12to13 13to21 21to50 50to51" />
    </vehicle>
    <vehicle id="aux85" depart="31">
        <route edges="62to61 61to60 60to59 59to49 49to50 50to21 21to22 22to16 16to17 17to18" />
    </vehicle>
    <vehicle id="aux146" depart="32">
        <route edges="58to61 61to60 60to59 59to55 55to56 56to57" />
    </vehicle>
    <vehicle id="aux151" depart="32">
        <route edges="60to61 61to62 62to61 61to60 60to59 59to49 49to51 51to50" />
    </vehicle>
    <vehicle id="aux152" depart="32">
        <route edges="51to50 50to49 49to46 46to44 44to43 43to45 45to41 41to40 40to38 38to37 37to25" />
    </vehicle>
    <vehicle id="aux154" depart="32">
        <route edges="14to12 12to13 13to21 21to22 22to23 23to56 56to57" />
    </vehicle>
    <vehicle id="aux113" depart="33">
        <route edges="24to23 23to22 22to21 21to13 13to12 12to14" />
    </vehicle>
    <vehicle id="aux140" depart="33">
        <route edges="18to17 17to16 16to22 22to21 21to50 50to51" />
    </vehicle>
    <vehicle id="aux141" depart="33">
        <route edges="51to49 49to46 46to44 44to43 43to42 42to36 36to35 35to29 29to26 26to25 25to4 4to5 5to6" />
    </vehicle>
    <vehicle id="aux148" depart="33">
        <route edges="11to8 8to12 12to14 14to17 17to16 16to22 22to23 23to24" />
    </vehicle>
    <vehicle id="aux150" depart="33">
        <route edges="6to5 5to4 4to25 25to26 26to29 29to35 35to41 41to40 40to38 38to37" />
    </vehicle>
    <vehicle id="aux156" depart="33">
        <route edges="50to49 49to46 46to44 44to43 43to45 45to41 41to40 40to38 38to37" />
    </vehicle>
    <vehicle id="aux158" depart="33">
        <route edges="58to55 55to56 56to23 23to24" />
    </vehicle>
    <vehicle id="aux93" depart="33">
        <route edges="62to61 61to45 45to41 41to40 40to38 38to37" />
    </vehicle>
    <vehicle id="aux153" depart="34">
        <route edges="58to61 61to62" />
    </vehicle>
    <vehicle id="aux155" depart="34">
        <route edges="14to12 12to8 8to10" />
    </vehicle>
    <vehicle id="aux160" depart="34">
        <route edges="37to38 38to29 29to26 26to20 20to13 13to15 15to16 16to17 17to14" />
    </vehicle>
    <vehicle id="aux161" depart="34">
        <route edges="50to21 21to13 13to12 12to8 8to10" />
    </vehicle>
    <vehicle id="aux164" depart="34">
        <route edges="50to51 51to52 52to51 51to50 50to21 21to13 13to12 12to8 8to11" />
    </vehicle>
    <vehicle id="aux108" depart="35">
        <route edges="62to61 61to60 60to59 59to49 49to50 50to21 21to13 13to12 12to8 8to11" />
    </vehicle>
    <vehicle id="aux121" depart="35">
        <route edges="24to23 23to22 22to21 21to50 50to49 49to51" />
    </vehicle>
    <vehicle id="aux147" depart="35">
        <route edges="18to17 17to14 14to12 12to20 20to19 19to5 5to4 4to25" />
    </vehicle>
    <vehicle id="aux166" depart="35">
        <route edges="14to17 17to16 16to15 15to13 13to12 12to8 8to10" />
    </vehicle>
    <vehicle id="aux168" depart="35">
        <route edges="10to8 8to7 7to19 19to5 5to6" />
    </vehicle>
    <vehicle id="aux162" depart="36">
        <route edges="14to12 12to8 8to11" />
    </vehicle>
    <vehicle id="aux169" depart="36">
        <route edges="58to61 61to60 60to59 59to49 49to50 50to21 21to13 13to12 12to8 8to11" />
    </vehicle>
    <vehicle id="aux170" depart="36">
        <route edges="57to56 56to23 23to22 22to16 16to17 17to18" />
    </vehicle>
    <vehicle id="aux173" depart="36">
        <route edges="50to21 21to53 53to54 54to28 28to27 27to26 26to29 29to35 35to41 41to40 40to38 38to37" />
    </vehicle>
    <vehicle id="aux111" depart="37">
        <route edges="62to61 61to60 60to59 59to55 55to56 56to57" />
    </vehicle>
    <vehicle id="aux128" depart="37">
        <route edges="24to23 23to22 22to16 16to17 17to18" />
    </vehicle>
    <vehicle id="aux149" depart="37">
        <route edges="18to17 17to14 14to12 12to8 8to11" />
    </vehicle>
    <vehicle id="aux171" depart="37">
        <route edges="14to17 17to16 16to22 22to21 21to50 50to49 49to51" />
    </vehicle>
    <vehicle id="aux175" depart="37">
        <route edges="25to2 2to3 3to5 5to4 4to25 25to37" />
    </vehicle>
    <vehicle id="aux176" depart="37">
        <route edges="6to5 5to19 19to20 20to12 12to14 14to17 17to18" />
    </vehicle>
    <vehicle id="aux177" depart="37">
        <route edges="10to8 8to7 7to19 19to5 5to6" />
    </vehicle>
    <vehicle id="aux179" depart="37">
        <route edges="50to47 47to48 48to53 53to54 54to28 28to27 27to26 26to25 25to37" />
    </vehicle>
    <vehicle id="aux174" depart="38">
        <route edges="57to56 56to55 55to59 59to49 49to51" />
    </vehicle>
    <vehicle id="aux180" depart="38">
        <route edges="14to12 12to13 13to21 21to50 50to49 49to59 59to60 60to61 61to62" />
    </vehicle>
    <vehicle id="aux182" depart="38">
        <route edges="25to37 37to38 38to29 29to26 26to20 20to12 12to14 14to17 17to18" />
    </vehicle>
    <vehicle id="aux183" depart="38">
        <route edges="37to25 25to26 26to27 27to28 28to54 54to53 53to21 21to22 22to23 23to24" />
    </vehicle>
    <vehicle id="aux184" depart="38">
        <route edges="58to61 61to60 60to59 59to49 49to50 50to47 47to48 48to53 53to21 21to50" />
    </vehicle>
    <vehicle id="aux130" depart="39">
        <route edges="24to23 23to22 22to21 21to50" />
    </vehicle>
    <vehicle id="aux142" depart="39">
        <route edges="62to61 61to60 60to43 43to42 42to36 36to35 35to29 29to26 26to25 25to37" />
    </vehicle>
    <vehicle id="aux163" depart="39">
        <route edges="18to17 17to14 14to12 12to20 20to26 26to25 25to37" />
    </vehicle>
    <vehicle id="aux178" depart="39">
        <route edges="10to8 8to12 12to14 14to17 17to16 16to22 22to23 23to24" />
    </vehicle>
    <vehicle id="aux185" depart="39">
        <route edges="60to61 61to45 45to41 41to35 35to29 29to26 26to25 25to4 4to5 5to6" />
    </vehicle>
    <vehicle id="aux187" depart="39">
        <route edges="51to49 49to46 46to44 44to43 43to45 45to41 41to40 40to38 38to37" />
    </vehicle>
    <vehicle id="aux186" depart="40">
        <route edges="14to12 12to13 13to21 21to50 50to49 49to51" />
    </vehicle>
    <vehicle id="aux189" depart="40">
        <route edges="57to56 56to55 55to59 59to60 60to43 43to42 42to36 36to35 35to29 29to26 26to25 25to4 4to5 5to6" />
    </vehicle>
    <vehicle id="aux190" depart="40">
        <route edges="6to5 5to4 4to25 25to26 26to29 29to35 35to36 36to33 33to34 34to44 44to46 46to49 49to51 51to52" />
    </vehicle>
    <vehicle id="aux193" depart="40">
        <route edges="50to49 49to46 46to44 44to43 43to45 45to41 41to40 40to38 38to37" />
    </vehicle>
    <vehicle id="aux194" depart="40">
        <route edges="60to43 43to42 42to36 36to33 33to34 34to44 44to46 46to49 49to50" />
    </vehicle>
    <vehicle id="aux132" depart="41">
        <route edges="24to23 23to22 22to21 21to53 53to54 54to28 28to27 27to26 26to25 25to4 4to5 5to6" />
    </vehicle>
    <vehicle id="aux157" depart="41">
        <route edges="62to61 61to60 60to59 59to49 49to51 51to52" />
    </vehicle>
    <vehicle id="aux165" depart="41">
        <route edges="18to17 17to14 14to12 12to8 8to11" />
    </vehicle>
    <vehicle id="aux188" depart="41">
        <route edges="10to8 8to7 7to19 19to5 5to4 4to25 25to37" />
    </vehicle>
    <vehicle id="aux198" depart="41">
        <route edges="11to8 8to12 12to13 13to21 21to50 50to49 49to59 59to55 55to58" />
    </vehicle>
    <vehicle id="aux196" depart="42">
        <route edges="6to5 5to4 4to25 25to26 26to29 29to35 35to41 41to40 40to38 38to37" />
    </vehicle>
    <vehicle id="aux197" depart="42">
        <route edges="57to56 56to55 55to59 59to49 49to50 50to51" />
    </vehicle>
    <vehicle id="aux200" depart="42">
        <route edges="51to49 49to46 46to44 44to43 43to42 42to36 36to35 35to29 29to26 26to20 20to19 19to5 5to4 4to25" />
    </vehicle>
    <vehicle id="aux159" depart="43">
        <route edges="62to61 61to60 60to59 59to49 49to51 51to50" />
    </vehicle>
    <vehicle id="aux167" depart="43">
        <route edges="24to23 23to22 22to21 21to53 53to54 54to28 28to27 27to26 26to25 25to37" />
    </vehicle>
    <vehicle id="aux181" depart="43">
        <route edges="18to17 17to16 16to22 22to23 23to56 56to57" />
    </vehicle>
    <vehicle id="aux195" depart="43">
        <route edges="10to8 8to11" />
    </vehicle>
    <vehicle id="aux199" depart="43">
        <route edges="11to8 8to12 12to13 13to21 21to50 50to51 51to49 49to50" />
    </vehicle>
    <vehicle id="aux208" depart="43">
        <route edges="14to12 12to13 13to21 21to50 50to49 49to59 59to55 55to58" />
    </vehicle>
    <vehicle id="aux205" depart="44">
        <route edges="6to5 5to4 4to25 25to26 26to27 27to28 28to54 54to53 53to21 21to22 22to23 23to24" />
    </vehicle>
    <vehicle id="aux211" depart="44">
        <route edges="58to61 61to60 60to59 59to49 49to50 50to21 21to22 22to23 23to24" />
    </vehicle>
    <vehicle id="aux212" depart="44">
        <route edges="37to25 25to26 26to29 29to35 35to36 36to33 33to31 31to27 27to26 26to25" />
    </vehicle>
    <vehicle id="aux172" depart="45">
        <route edges="24to23 23to22 22to21 21to53 53to54 54to28 28to27 27to26 26to29 29to35 35to41 41to40 40to38 38to37" />
    </vehicle>
    <vehicle id="aux191" depart="45">
        <route edges="62to61 61to45 45to41 41to40 40to38 38to37" />
    </vehicle>
    <vehicle id="aux201" depart="45">
        <route edges="18to17 17to16 16to22 22to21 21to50 50to51 51to52" />
    </vehicle>
    <vehicle id="aux206" depart="45">
        <route edges="10to8 8to12 12to13 13to21 21to50 50to51 51to52" />
    </vehicle>
    <vehicle id="aux216" depart="45">
        <route edges="14to17 17to16 16to15 15to13 13to20 20to26 26to29 29to35 35to41 41to40 40to38 38to37 37to25" />
    </vehicle>
    <vehicle id="aux210" depart="46">
        <route edges="6to5 5to4 4to25" />
    </vehicle>
    <vehicle id="aux220" depart="46">
        <route edges="57to56 56to23 23to24" />
    </vehicle>
    <vehicle id="aux221" depart="46">
        <route edges="14to12 12to13 13to21 21to50 50to51 51to52 52to51 51to50" />
    </vehicle>
    <vehicle id="aux222" depart="46">
        <route edges="58to61 61to60 60to59 59to49 49to50 50to21 21to22 22to16 16to17 17to18" />
    </vehicle>
    <vehicle id="aux223" depart="46">
        <route edges="50to51 51to49 49to46 46to44 44to43 43to45 45to41 41to40 40to38 38to37" />
    </vehicle>
    <vehicle id="aux224" depart="46">
        <route edges="50to21 21to53 53to48 48to47 47to46 46to49 49to51 51to52" />
    </vehicle>
    <vehicle id="aux192" depart="47">
        <route edges="62to61 61to60 60to59 59to49 49to51 51to52" />
    </vehicle>
    <vehicle id="aux202" depart="47">
        <route edges="24to23 23to22 22to21 21to50 50to51 51to52 52to51 51to50" />
    </vehicle>
    <vehicle id="aux203" depart="47">
        <route edges="18to17 17to16 16to22 22to23 23to24" />
    </vehicle>
    <vehicle id="aux213" depart="47">
        <route edges="10to8 8to12 12to14 14to17 17to18" />
    </vehicle>
    <vehicle id="aux225" depart="47">
        <route edges="37to25 25to26 26to29 29to35 35to36 36to33 33to31 31to27 27to26 26to25" />
    </vehicle>
    <vehicle id="aux226" depart="47">
        <route edges="51to50 50to47 47to48 48to53 53to54 54to28 28to27 27to26 26to25 25to4 4to5 5to6" />
    </vehicle>
    <vehicle id="aux227" depart="47">
        <route edges="58to55 55to59 59to60 60to43 43to45 45to41 41to40 40to38 38to37" />
    </vehicle>
    <vehicle id="aux214" depart="48">
        <route edges="6to5 5to19 19to7 7to8 8to11" />
    </vehicle>
    <vehicle id="aux230" depart="48">
        <route edges="58to61 61to60 60to59 59to49 49to50 50to21 21to22 22to16 16to17 17to18" />
    </vehicle>
    <vehicle id="aux233" depart="48">
        <route edges="60to59 59to49 49to46 46to44 44to43 43to42 42to36 36to35 35to29 29to26 26to20 20to19 19to5 5to4 4to25" />
    </vehicle>
    <vehicle id="aux234" depart="48">
        <route edges="25to2 2to3 3to5 5to19 19to20 20to12 12to14 14to17 17to18" />
    </vehicle>
    <vehicle id="aux204" depart="49">
        <route edges="62to61 61to60 60to43 43to42 42to36 36to35 35to29 29to26 26to25 25to4 4to5 5to6" />
    </vehicle>
    <vehicle id="aux207" depart="49">
        <route edges="18to17 17to16 16to22 22to21 21to50" />
    </vehicle>
    <vehicle id="aux218" depart="49">
        <route edges="24to23 23to22 22to21 21to50 50to51 51to52" />
    </vehicle>
    <vehicle id="aux231" depart="49">
        <route edges="51to50 50to21 21to13 13to12 12to14" />
    </vehicle>
    <vehicle id="aux232" depart="49">
        <route edges="10to8 8to12 12to13 13to21 21to50 50to51 51to52 52to51 51to50" />
    </vehicle>
    <vehicle id="aux236" depart="49">