<?xml version="1.0"?>
<!-- generated on 2013-03-23 19:14:44.136346 by $Id: route2trips.py 11671 2012-01-07 20:14:30Z behrisch $ -->
<trips>
    <trip depart="2" id="aux0" from="6to5" to="51to52"/>
    <trip depart="2" id="aux1" from="50to51" to="61to60"/>
    <trip depart="2" id="aux2" from="52to51" to="38to37"/>
    <trip depart="2" id="aux3" from="57to56" to="26to25"/>
    <trip depart="3" id="aux5" from="50to49" to="51to52"/>
    <trip depart="3" id="aux6" from="24to23" to="8to10"/>
    <trip depart="3" id="aux7" from="62to61" to="38to37"/>
    <trip depart="4" id="aux14" from="37to25" to="26to25"/>
    <trip depart="4" id="aux4" from="52to51" to="21to50"/>
    <trip depart="4" id="aux8" from="6to5" to="21to50"/>
    <trip depart="4" id="aux9" from="50to51" to="38to37"/>
    <trip depart="5" id="aux10" from="62to61" to="17to14"/>
    <trip depart="5" id="aux12" from="24to23" to="17to18"/>
    <trip depart="5" id="aux16" from="18to17" to="17to14"/>
    <trip depart="5" id="aux18" from="14to17" to="5to6"/>
    <trip depart="6" id="aux13" from="52to51" to="49to50"/>
    <trip depart="6" id="aux20" from="37to25" to="5to6"/>
    <trip depart="6" id="aux21" from="50to49" to="8to10"/>
    <trip depart="6" id="aux22" from="6to5" to="51to52"/>
    <trip depart="6" id="aux24" from="51to50" to="8to11"/>
    <trip depart="7" id="aux11" from="62to61" to="51to52"/>
    <trip depart="7" id="aux17" from="18to17" to="56to57"/>
    <trip depart="7" id="aux25" from="60to43" to="5to6"/>
    <trip depart="7" id="aux26" from="57to56" to="51to52"/>
    <trip depart="7" id="aux27" from="60to59" to="51to50"/>
    <trip depart="8" id="aux23" from="52to51" to="5to6"/>
    <trip depart="8" id="aux29" from="6to5" to="12to14"/>
    <trip depart="8" id="aux32" from="50to49" to="17to18"/>
    <trip depart="8" id="aux33" from="37to38" to="26to25"/>
    <trip depart="9" id="aux15" from="62to61" to="51to50"/>
    <trip depart="9" id="aux30" from="57to56" to="38to37"/>
    <trip depart="9" id="aux36" from="51to49" to="5to6"/>
    <trip depart="9" id="aux37" from="14to12" to="51to52"/>
    <trip depart="9" id="aux38" from="10to8" to="17to18"/>
    <trip depart="9" id="aux39" from="24to23" to="61to62"/>
    <trip depart="10" id="aux31" from="6to5" to="23to24"/>
    <trip depart="10" id="aux41" from="37to25" to="56to57"/>
    <trip depart="10" id="aux42" from="60to61" to="5to6"/>
    <trip depart="10" id="aux43" from="50to51" to="51to52"/>
    <trip depart="11" id="aux19" from="62to61" to="51to52"/>
    <trip depart="11" id="aux40" from="24to23" to="55to58"/>
    <trip depart="11" id="aux44" from="14to12" to="38to37"/>
    <trip depart="11" id="aux45" from="11to8" to="8to10"/>
    <trip depart="11" id="aux46" from="14to17" to="17to18"/>
    <trip depart="11" id="aux47" from="51to50" to="43to60"/>
    <trip depart="11" id="aux48" from="10to8" to="38to37"/>
    <trip depart="12" id="aux34" from="6to5" to="2to25"/>
    <trip depart="12" id="aux53" from="52to51" to="56to57"/>
    <trip depart="12" id="aux54" from="51to49" to="51to50"/>
    <trip depart="13" id="aux28" from="62to61" to="38to37"/>
    <trip depart="13" id="aux49" from="24to23" to="5to6"/>
    <trip depart="13" id="aux51" from="14to17" to="4to25"/>
    <trip depart="13" id="aux52" from="10to8" to="4to25"/>
    <trip depart="13" id="aux55" from="60to61" to="8to10"/>
    <trip depart="13" id="aux57" from="57to56" to="61to58"/>
    <trip depart="13" id="aux58" from="58to55" to="8to11"/>
    <trip depart="14" id="aux63" from="37to25" to="5to6"/>
    <trip depart="14" id="aux64" from="14to12" to="49to51"/>
    <trip depart="15" id="aux35" from="62to61" to="38to37"/>
    <trip depart="15" id="aux59" from="24to23" to="51to52"/>
    <trip depart="15" id="aux65" from="50to21" to="43to60"/>
    <trip depart="16" id="aux68" from="14to12" to="61to60"/>
    <trip depart="16" id="aux70" from="6to5" to="43to60"/>
    <trip depart="16" id="aux74" from="14to17" to="61to62"/>
    <trip depart="17" id="aux50" from="62to61" to="17to18"/>
    <trip depart="17" id="aux61" from="24to23" to="38to37"/>
    <trip depart="17" id="aux75" from="57to56" to="8to11"/>
    <trip depart="17" id="aux76" from="10to8" to="8to11"/>
    <trip depart="17" id="aux77" from="11to8" to="2to25"/>
    <trip depart="17" id="aux78" from="52to51" to="8to11"/>
    <trip depart="18" id="aux80" from="6to5" to="17to18"/>
    <trip depart="18" id="aux81" from="50to47" to="61to62"/>
    <trip depart="18" id="aux82" from="51to50" to="5to6"/>
    <trip depart="18" id="aux83" from="37to25" to="4to25"/>
    <trip depart="19" id="aux56" from="62to61" to="51to52"/>
    <trip depart="19" id="aux67" from="24to23" to="25to37"/>
    <trip depart="19" id="aux84" from="10to8" to="25to37"/>
    <trip depart="19" id="aux87" from="18to17" to="5to6"/>
    <trip depart="19" id="aux88" from="57to56" to="8to11"/>
    <trip depart="19" id="aux89" from="14to12" to="26to25"/>
    <trip depart="20" id="aux91" from="14to17" to="51to52"/>
    <trip depart="20" id="aux92" from="6to5" to="49to51"/>
    <trip depart="20" id="aux94" from="11to8" to="51to52"/>
    <trip depart="21" id="aux60" from="62to61" to="5to6"/>
    <trip depart="21" id="aux69" from="24to23" to="17to18"/>
    <trip depart="21" id="aux90" from="10to8" to="17to14"/>
    <trip depart="21" id="aux95" from="50to51" to="17to18"/>
    <trip depart="21" id="aux98" from="60to43" to="5to6"/>
    <trip depart="22" id="aux100" from="52to51" to="61to58"/>
    <trip depart="22" id="aux102" from="57to56" to="25to37"/>
    <trip depart="22" id="aux103" from="6to5" to="61to58"/>
    <trip depart="22" id="aux104" from="58to61" to="17to18"/>
    <trip depart="22" id="aux99" from="11to8" to="8to10"/>
    <trip depart="23" id="aux105" from="18to17" to="25to37"/>
    <trip depart="23" id="aux106" from="50to21" to="2to25"/>
    <trip depart="23" id="aux109" from="50to47" to="4to25"/>
    <trip depart="23" id="aux62" from="62to61" to="51to50"/>
    <trip depart="23" id="aux71" from="24to23" to="56to57"/>
    <trip depart="23" id="aux96" from="10to8" to="23to24"/>
    <trip depart="24" id="aux114" from="52to51" to="25to37"/>
    <trip depart="25" id="aux110" from="18to17" to="51to50"/>
    <trip depart="25" id="aux116" from="11to8" to="21to50"/>
    <trip depart="25" id="aux118" from="6to5" to="51to52"/>
    <trip depart="25" id="aux66" from="62to61" to="51to50"/>
    <trip depart="25" id="aux73" from="24to23" to="12to14"/>
    <trip depart="25" id="aux97" from="10to8" to="21to50"/>
    <trip depart="26" id="aux122" from="52to51" to="21to50"/>
    <trip depart="26" id="aux123" from="57to56" to="61to62"/>
    <trip depart="26" id="aux124" from="37to25" to="8to10"/>
    <trip depart="27" id="aux112" from="18to17" to="43to60"/>
    <trip depart="27" id="aux117" from="11to8" to="8to10"/>
    <trip depart="27" id="aux119" from="10to8" to="25to37"/>
    <trip depart="27" id="aux120" from="6to5" to="25to37"/>
    <trip depart="27" id="aux127" from="58to55" to="49to50"/>
    <trip depart="27" id="aux72" from="62to61" to="38to37"/>
    <trip depart="27" id="aux86" from="24to23" to="8to10"/>
    <trip depart="28" id="aux125" from="57to56" to="51to52"/>
    <trip depart="28" id="aux133" from="50to51" to="51to52"/>
    <trip depart="28" id="aux134" from="52to51" to="61to60"/>
    <trip depart="29" id="aux101" from="24to23" to="61to62"/>
    <trip depart="29" id="aux115" from="18to17" to="25to37"/>
    <trip depart="29" id="aux126" from="10to8" to="51to52"/>
    <trip depart="29" id="aux131" from="6to5" to="25to37"/>
    <trip depart="29" id="aux135" from="25to2" to="17to18"/>
    <trip depart="29" id="aux136" from="50to49" to="51to52"/>
    <trip depart="29" id="aux138" from="50to47" to="56to57"/>
    <trip depart="29" id="aux79" from="62to61" to="61to58"/>
    <trip depart="30" id="aux139" from="57to56" to="5to6"/>
    <trip depart="30" id="aux143" from="58to61" to="17to18"/>
    <trip depart="30" id="aux144" from="14to17" to="38to37"/>
    <trip depart="31" id="aux107" from="24to23" to="25to37"/>
    <trip depart="31" id="aux129" from="18to17" to="50to51"/>
    <trip depart="31" id="aux137" from="6to5" to="38to37"/>
    <trip depart="31" id="aux145" from="11to8" to="50to51"/>
    <trip depart="31" id="aux85" from="62to61" to="17to18"/>
    <trip depart="32" id="aux146" from="58to61" to="56to57"/>
    <trip depart="32" id="aux151" from="60to61" to="51to50"/>
    <trip depart="32" id="aux152" from="51to50" to="37to25"/>
    <trip depart="32" id="aux154" from="14to12" to="56to57"/>
    <trip depart="33" id="aux113" from="24to23" to="12to14"/>
    <trip depart="33" id="aux140" from="18to17" to="50to51"/>
    <trip depart="33" id="aux141" from="51to49" to="5to6"/>
    <trip depart="33" id="aux148" from="11to8" to="23to24"/>
    <trip depart="33" id="aux150" from="6to5" to="38to37"/>
    <trip depart="33" id="aux156" from="50to49" to="38to37"/>
    <trip depart="33" id="aux158" from="58to55" to="23to24"/>
    <trip depart="33" id="aux93" from="62to61" to="38to37"/>
    <trip depart="34" id="aux153" from="58to61" to="61to62"/>
    <trip depart="34" id="aux155" from="14to12" to="8to10"/>
    <trip depart="34" id="aux160" from="37to38" to="17to14"/>
    <trip depart="34" id="aux161" from="50to21" to="8to10"/>
    <trip depart="34" id="aux164" from="50to51" to="8to11"/>
    <trip depart="35" id="aux108" from="62to61" to="8to11"/>
    <trip depart="35" id="aux121" from="24to23" to="49to51"/>
    <trip depart="35" id="aux147" from="18to17" to="4to25"/>
    <trip depart="35" id="aux166" from="14to17" to="8to10"/>
    <trip depart="35" id="aux168" from="10to8" to="5to6"/>
    <trip depart="36" id="aux162" from="14to12" to="8to11"/>
    <trip depart="36" id="aux169" from="58to61" to="8to11"/>
    <trip depart="36" id="aux170" from="57to56" to="17to18"/>
    <trip depart="36" id="aux173" from="50to21" to="38to37"/>
    <trip depart="37" id="aux111" from="62to61" to="56to57"/>
    <trip depart="37" id="aux128" from="24to23" to="17to18"/>
    <trip depart="37" id="aux149" from="18to17" to="8to11"/>
    <trip depart="37" id="aux171" from="14to17" to="49to51"/>
    <trip depart="37" id="aux175" from="25to2" to="25to37"/>
    <trip depart="37" id="aux176" from="6to5" to="17to18"/>
    <trip depart="37" id="aux177" from="10to8" to="5to6"/>
    <trip depart="37" id="aux179" from="50to47" to="25to37"/>
    <trip depart="38" id="aux174" from="57to56" to="49to51"/>
    <trip depart="38" id="aux180" from="14to12" to="61to62"/>
    <trip depart="38" id="aux182" from="25to37" to="17to18"/>
    <trip depart="38" id="aux183" from="37to25" to="23to24"/>
    <trip depart="38" id="aux184" from="58to61" to="21to50"/>
    <trip depart="39" id="aux130" from="24to23" to="21to50"/>
    <trip depart="39" id="aux142" from="62to61" to="25to37"/>
    <trip depart="39" id="aux163" from="18to17" to="25to37"/>
    <trip depart="39" id="aux178" from="10to8" to="23to24"/>
    <trip depart="39" id="aux185" from="60to61" to="5to6"/>
    <trip depart="39" id="aux187" from="51to49" to="38to37"/>
    <trip depart="40" id="aux186" from="14to12" to="49to51"/>
    <trip depart="40" id="aux189" from="57to56" to="5to6"/>
    <trip depart="40" id="aux190" from="6to5" to="51to52"/>
    <trip depart="40" id="aux193" from="50to49" to="38to37"/>
    <trip depart="40" id="aux194" from="60to43" to="49to50"/>
    <trip depart="41" id="aux132" from="24to23" to="5to6"/>
    <trip depart="41" id="aux157" from="62to61" to="51to52"/>
    <trip depart="41" id="aux165" from="18to17" to="8to11"/>
    <trip depart="41" id="aux188" from="10to8" to="25to37"/>
    <trip depart="41" id="aux198" from="11to8" to="55to58"/>
    <trip depart="42" id="aux196" from="6to5" to="38to37"/>
    <trip depart="42" id="aux197" from="57to56" to="50to51"/>
    <trip depart="42" id="aux200" from="51to49" to="4to25"/>
    <trip depart="43" id="aux159" from="62to61" to="51to50"/>
    <trip depart="43" id="aux167" from="24to23" to="25to37"/>
    <trip depart="43" id="aux181" from="18to17" to="56to57"/>
    <trip depart="43" id="aux195" from="10to8" to="8to11"/>
    <trip depart="43" id="aux199" from="11to8" to="49to50"/>
    <trip depart="43" id="aux208" from="14to12" to="55to58"/>
    <trip depart="44" id="aux205" from="6to5" to="23to24"/>
    <trip depart="44" id="aux211" from="58to61" to="23to24"/>
    <trip depart="44" id="aux212" from="37to25" to="26to25"/>
    <trip depart="45" id="aux172" from="24to23" to="38to37"/>
    <trip depart="45" id="aux191" from="62to61" to="38to37"/>
    <trip depart="45" id="aux201" from="18to17" to="51to52"/>
    <trip depart="45" id="aux206" from="10to8" to="51to52"/>
    <trip depart="45" id="aux216" from="14to17" to="37to25"/>
    <trip depart="46" id="aux210" from="6to5" to="4to25"/>
    <trip depart="46" id="aux220" from="57to56" to="23to24"/>
    <trip depart="46" id="aux221" from="14to12" to="51to50"/>
    <trip depart="46" id="aux222" from="58to61" to="17to18"/>
    <trip depart="46" id="aux223" from="50to51" to="38to37"/>
    <trip depart="46" id="aux224" from="50to21" to="51to52"/>
    <trip depart="47" id="aux192" from="62to61" to="51to52"/>
    <trip depart="47" id="aux202" from="24to23" to="51to50"/>
    <trip depart="47" id="aux203" from="18to17" to="23to24"/>
    <trip depart="47" id="aux213" from="10to8" to="17to18"/>
    <trip depart="47" id="aux225" from="37to25" to="26to25"/>
    <trip depart="47" id="aux226" from="51to50" to="5to6"/>
    <trip depart="47" id="aux227" from="58to55" to="38to37"/>
    <trip depart="48" id="aux214" from="6to5" to="8to11"/>
    <trip depart="48" id="aux230" from="58to61" to="17to18"/>
    <trip depart="48" id="aux233" from="60to59" to="4to25"/>
    <trip depart="48" id="aux234" from="25to2" to="17to18"/>
    <trip depart="49" id="aux204" from="62to61" to="5to6"/>
    <trip depart="49" id="aux207" from="18to17" to="21to50"/>
    <trip depart="49" id="aux218" from="24to23" to="51to52"/>
    <trip depart="49" id="aux231" from="51to50" to="12to14"/>
    <trip depart="49" id="aux232" from="10to8" to="51to50"/>
    <trip depart="49" id="aux236" from="51to49" to="5to6"/>
    <trip depart="49" id="aux237" from="52to51" to="55to58"/>
    <trip depart="50" id="aux217" from="6to5" to="8to10"/>
    <trip depart="50" id="aux241" from="57to56" to="25to37"/>
    <trip depart="50" id="aux242" from="37to25" to="8to11"/>
    <trip depart="51" id="aux209" from="62to61" to="38to37"/>
    <trip depart="51" id="aux215" from="18to17" to="61to62"/>
    <trip depart="51" id="aux228" from="24to23" to="8to11"/>
    <trip depart="51" id="aux245" from="52to51" to="5to6"/>
    <trip depart="51" id="aux247" from="11to8" to="17to18"/>
    <trip depart="51" id="aux248" from="50to47" to="2to25"/>
    <trip depart="51" id="aux249" from="50to49" to="2to25"/>
    <trip depart="52" id="aux219" from="6to5" to="38to37"/>
    <trip depart="52" id="aux254" from="51to49" to="26to25"/>
    <trip depart="53" id="aux229" from="24to23" to="49to50"/>
    <trip depart="53" id="aux235" from="62to61" to="51to52"/>
    <trip depart="53" id="aux243" from="18to17" to="17to14"/>
    <trip depart="53" id="aux255" from="58to61" to="51to52"/>
    <trip depart="53" id="aux256" from="50to47" to="61to62"/>
    <trip depart="53" id="aux257" from="50to21" to="8to10"/>
    <trip depart="53" id="aux258" from="57to56" to="38to37"/>
    <trip depart="54" id="aux251" from="6to5" to="49to50"/>
    <trip depart="54" id="aux261" from="10to8" to="51to50"/>
    <trip depart="55" id="aux238" from="62to61" to="25to37"/>
    <trip depart="55" id="aux239" from="24to23" to="25to37"/>
    <trip depart="55" id="aux244" from="18to17" to="59to60"/>
    <trip depart="55" id="aux263" from="57to56" to="17to18"/>
    <trip depart="55" id="aux265" from="60to43" to="51to52"/>
    <trip depart="55" id="aux267" from="50to49" to="25to37"/>
    <trip depart="55" id="aux268" from="58to55" to="38to37"/>
    <trip depart="56" id="aux264" from="10to8" to="49to50"/>
    <trip depart="56" id="aux270" from="6to5" to="59to60"/>
    <trip depart="56" id="aux271" from="14to12" to="51to52"/>
    <trip depart="56" id="aux273" from="11to8" to="49to51"/>
    <trip depart="57" id="aux240" from="62to61" to="5to6"/>
    <trip depart="57" id="aux250" from="24to23" to="51to50"/>
    <trip depart="57" id="aux260" from="18to17" to="51to52"/>
    <trip depart="57" id="aux275" from="58to61" to="8to10"/>
    <trip depart="57" id="aux276" from="51to50" to="51to52"/>
    <trip depart="57" id="aux277" from="51to49" to="17to18"/>
    <trip depart="57" id="aux278" from="50to21" to="49to51"/>
    <trip depart="57" id="aux279" from="60to43" to="5to6"/>
    <trip depart="58" id="aux280" from="10to8" to="61to58"/>
    <trip depart="58" id="aux284" from="37to25" to="56to57"/>
    <trip depart="59" id="aux246" from="62to61" to="25to37"/>
    <trip depart="59" id="aux253" from="24to23" to="49to51"/>
    <trip depart="59" id="aux269" from="18to17" to="61to62"/>
    <trip depart="59" id="aux285" from="60to61" to="51to52"/>
    <trip depart="59" id="aux287" from="11to8" to="17to14"/>
    <trip depart="59" id="aux288" from="52to51" to="5to6"/>
    <trip depart="60" id="aux281" from="10to8" to="49to51"/>
    <trip depart="60" id="aux290" from="57to56" to="51to52"/>
    <trip depart="60" id="aux294" from="6to5" to="55to58"/>
    <trip depart="61" id="aux252" from="62to61" to="17to18"/>
    <trip depart="61" id="aux266" from="24to23" to="43to60"/>
    <trip depart="61" id="aux283" from="18to17" to="38to37"/>
    <trip depart="61" id="aux286" from="60to61" to="21to50"/>
    <trip depart="61" id="aux292" from="11to8" to="25to37"/>
    <trip depart="61" id="aux299" from="14to12" to="51to50"/>
    <trip depart="62" id="aux289" from="10to8" to="2to25"/>
    <trip depart="62" id="aux293" from="57to56" to="8to10"/>
    <trip depart="62" id="aux303" from="52to51" to="49to50"/>
    <trip depart="63" id="aux259" from="62to61" to="51to50"/>
    <trip depart="63" id="aux274" from="24to23" to="8to11"/>
    <trip depart="63" id="aux308" from="11to8" to="43to60"/>
    <trip depart="63" id="aux309" from="51to50" to="26to25"/>
    <trip depart="64" id="aux295" from="57to56" to="51to52"/>
    <trip depart="64" id="aux297" from="10to8" to="51to52"/>
    <trip depart="64" id="aux304" from="52to51" to="5to6"/>
    <trip depart="64" id="aux310" from="18to17" to="2to25"/>
    <trip depart="64" id="aux311" from="50to51" to="25to37"/>
    <trip depart="64" id="aux312" from="14to12" to="17to18"/>
    <trip depart="65" id="aux262" from="62to61" to="8to10"/>
    <trip depart="65" id="aux313" from="24to23" to="38to37"/>
    <trip depart="65" id="aux316" from="58to55" to="8to11"/>
    <trip depart="66" id="aux301" from="57to56" to="49to50"/>
    <trip depart="66" id="aux305" from="10to8" to="17to18"/>
    <trip depart="66" id="aux314" from="52to51" to="8to11"/>
    <trip depart="66" id="aux315" from="18to17" to="61to60"/>
    <trip depart="66" id="aux321" from="25to4" to="17to18"/>
    <trip depart="67" id="aux272" from="62to61" to="51to52"/>
    <trip depart="67" id="aux317" from="24to23" to="17to18"/>
    <trip depart="67" id="aux319" from="58to55" to="49to51"/>
    <trip depart="67" id="aux327" from="51to49" to="12to14"/>
    <trip depart="67" id="aux328" from="14to17" to="38to37"/>
    <trip depart="67" id="aux329" from="60to43" to="8to11"/>
    <trip depart="68" id="aux302" from="57to56" to="12to14"/>
    <trip depart="68" id="aux307" from="10to8" to="12to14"/>
    <trip depart="68" id="aux318" from="18to17" to="43to60"/>
    <trip depart="68" id="aux333" from="58to61" to="23to24"/>
    <trip depart="68" id="aux334" from="11to8" to="50to51"/>
    <trip depart="69" id="aux282" from="62to61" to="38to37"/>
    <trip depart="69" id="aux325" from="24to23" to="50to51"/>
    <trip depart="69" id="aux332" from="60to43" to="8to10"/>
    <trip depart="69" id="aux335" from="58to55" to="50to51"/>
    <trip depart="69" id="aux337" from="60to61" to="51to52"/>
    <trip depart="69" id="aux338" from="14to12" to="59to60"/>
    <trip depart="69" id="aux339" from="37to25" to="61to62"/>
    <trip depart="70" id="aux323" from="18to17" to="25to37"/>
    <trip depart="70" id="aux324" from="10to8" to="23to24"/>
    <trip depart="70" id="aux326" from="57to56" to="61to60"/>
    <trip depart="70" id="aux341" from="50to21" to="55to58"/>
    <trip depart="70" id="aux342" from="50to47" to="55to58"/>
    <trip depart="71" id="aux291" from="62to61" to="25to37"/>
    <trip depart="71" id="aux330" from="24to23" to="61to62"/>
    <trip depart="71" id="aux345" from="58to55" to="17to18"/>
    <trip depart="71" id="aux347" from="37to38" to="8to10"/>
    <trip depart="71" id="aux348" from="60to61" to="21to50"/>
    <trip depart="72" id="aux331" from="18to17" to="8to11"/>
    <trip depart="72" id="aux346" from="50to21" to="61to58"/>
    <trip depart="72" id="aux350" from="11to8" to="21to50"/>
    <trip depart="72" id="aux351" from="52to51" to="8to11"/>
    <trip depart="72" id="aux352" from="57to56" to="38to37"/>
    <trip depart="72" id="aux353" from="58to61" to="51to52"/>
    <trip depart="73" id="aux296" from="62to61" to="49to51"/>
    <trip depart="73" id="aux340" from="24to23" to="8to11"/>
    <trip depart="73" id="aux349" from="58to55" to="50to51"/>
    <trip depart="73" id="aux355" from="14to17" to="56to57"/>
    <trip depart="73" id="aux357" from="6to5" to="17to14"/>
    <trip depart="73" id="aux358" from="60to43" to="26to25"/>
    <trip depart="74" id="aux343" from="18to17" to="23to24"/>
    <trip depart="74" id="aux359" from="58to61" to="51to52"/>
    <trip depart="74" id="aux361" from="14to12" to="61to62"/>
    <trip depart="74" id="aux362" from="10to8" to="43to60"/>
    <trip depart="75" id="aux298" from="62to61" to="38to37"/>
    <trip depart="75" id="aux356" from="24to23" to="8to10"/>
    <trip depart="75" id="aux363" from="60to43" to="51to50"/>
    <trip depart="75" id="aux364" from="58to55" to="17to14"/>
    <trip depart="75" id="aux366" from="57to56" to="51to52"/>
    <trip depart="75" id="aux367" from="50to47" to="61to58"/>
    <trip depart="75" id="aux369" from="14to17" to="25to37"/>
    <trip depart="76" id="aux344" from="18to17" to="8to10"/>
    <trip depart="76" id="aux360" from="58to61" to="8to10"/>
    <trip depart="76" id="aux371" from="6to5" to="49to50"/>
    <trip depart="76" id="aux372" from="11to8" to="8to10"/>
    <trip depart="77" id="aux300" from="62to61" to="51to52"/>
    <trip depart="77" id="aux365" from="24to23" to="8to10"/>
    <trip depart="77" id="aux368" from="50to47" to="55to58"/>
    <trip depart="77" id="aux370" from="57to56" to="50to51"/>
    <trip depart="77" id="aux377" from="58to55" to="51to50"/>
    <trip depart="78" id="aux373" from="18to17" to="12to14"/>
    <trip depart="78" id="aux374" from="50to49" to="12to14"/>
    <trip depart="78" id="aux375" from="11to8" to="26to25"/>
    <trip depart="78" id="aux378" from="58to61" to="38to37"/>
    <trip depart="78" id="aux380" from="52to51" to="17to14"/>
    <trip depart="78" id="aux382" from="51to50" to="25to37"/>
    <trip depart="78" id="aux383" from="50to51" to="8to10"/>
    <trip depart="79" id="aux306" from="62to61" to="8to11"/>
    <trip depart="79" id="aux386" from="60to59" to="12to14"/>
    <trip depart="79" id="aux389" from="58to55" to="50to51"/>
    <trip depart="80" id="aux376" from="18to17" to="51to50"/>
    <trip depart="80" id="aux381" from="52to51" to="51to50"/>
    <trip depart="80" id="aux388" from="58to61" to="50to51"/>
    <trip depart="80" id="aux390" from="10to8" to="51to50"/>
    <trip depart="80" id="aux392" from="50to49" to="17to18"/>
    <trip depart="80" id="aux393" from="57to56" to="17to18"/>
    <trip depart="80" id="aux394" from="60to43" to="21to50"/>
    <trip depart="81" id="aux320" from="62to61" to="12to14"/>
    <trip depart="81" id="aux396" from="24to23" to="12to14"/>
    <trip depart="81" id="aux399" from="14to17" to="5to6"/>
    <trip depart="82" id="aux379" from="18to17" to="61to60"/>
    <trip depart="82" id="aux384" from="52to51" to="37to25"/>
    <trip depart="82" id="aux397" from="57to56" to="8to11"/>
    <trip depart="82" id="aux402" from="37to25" to="17to14"/>
    <trip depart="82" id="aux403" from="10to8" to="25to37"/>
    <trip depart="83" id="aux322" from="62to61" to="61to60"/>
    <trip depart="83" id="aux400" from="24to23" to="49to51"/>
    <trip depart="83" id="aux406" from="14to17" to="5to6"/>
    <trip depart="83" id="aux409" from="14to12" to="51to52"/>
    <trip depart="84" id="aux391" from="18to17" to="21to50"/>
    <trip depart="84" id="aux401" from="52to51" to="61to58"/>
    <trip depart="84" id="aux407" from="10to8" to="61to58"/>
    <trip depart="84" id="aux408" from="57to56" to="5to6"/>
    <trip depart="84" id="aux410" from="58to61" to="49to50"/>
    <trip depart="84" id="aux412" from="50to49" to="50to51"/>
    <trip depart="85" id="aux336" from="62to61" to="51to52"/>
    <trip depart="85" id="aux404" from="24to23" to="17to18"/>
    <trip depart="85" id="aux415" from="37to25" to="5to6"/>
    <trip depart="85" id="aux417" from="14to12" to="25to37"/>
    <trip depart="85" id="aux418" from="11to8" to="23to24"/>
    <trip depart="85" id="aux419" from="60to61" to="12to14"/>
    <trip depart="86" id="aux395" from="18to17" to="51to52"/>
    <trip depart="86" id="aux405" from="52to51" to="2to25"/>
    <trip depart="86" id="aux411" from="57to56" to="23to24"/>
    <trip depart="86" id="aux421" from="6to5" to="23to24"/>
    <trip depart="86" id="aux423" from="50to47" to="61to62"/>
    <trip depart="87" id="aux354" from="62to61" to="51to52"/>
    <trip depart="87" id="aux413" from="24to23" to="61to62"/>
    <trip depart="87" id="aux420" from="14to12" to="49to50"/>
    <trip depart="87" id="aux426" from="25to26" to="38to37"/>
    <trip depart="87" id="aux429" from="50to21" to="51to52"/>
    <trip depart="88" id="aux414" from="57to56" to="17to14"/>
    <trip depart="88" id="aux425" from="51to50" to="8to11"/>
    <trip depart="88" id="aux428" from="18to17" to="23to24"/>
    <trip depart="88" id="aux430" from="60to61" to="8to10"/>
    <trip depart="88" id="aux431" from="60to43" to="5to6"/>
    <trip depart="88" id="aux432" from="37to38" to="49to50"/>
    <trip depart="88" id="aux433" from="11to8" to="17to14"/>
    <trip depart="89" id="aux385" from="62to61" to="51to52"/>
    <trip depart="89" id="aux427" from="24to23" to="59to60"/>
    <trip depart="89" id="aux435" from="6to5" to="17to18"/>
    <trip depart="89" id="aux436" from="52to51" to="56to57"/>
    <trip depart="89" id="aux439" from="58to61" to="5to6"/>
    <trip depart="90" id="aux424" from="57to56" to="51to50"/>
    <trip depart="90" id="aux437" from="51to50" to="5to6"/>
    <trip depart="91" id="aux387" from="62to61" to="50to51"/>
    <trip depart="91" id="aux440" from="58to61" to="51to50"/>
    <trip depart="91" id="aux442" from="6to5" to="8to11"/>
    <trip depart="91" id="aux444" from="52to51" to="17to18"/>
    <trip depart="91" id="aux449" from="10to8" to="21to50"/>
    <trip depart="92" id="aux438" from="57to56" to="21to50"/>
    <trip depart="92" id="aux450" from="11to8" to="5to6"/>
    <trip depart="92" id="aux453" from="14to12" to="51to52"/>
    <trip depart="92" id="aux454" from="24to23" to="17to18"/>
    <trip depart="93" id="aux398" from="62to61" to="51to52"/>
    <trip depart="93" id="aux443" from="6to5" to="51to52"/>
    <trip depart="93" id="aux447" from="58to61" to="38to37"/>
    <trip depart="93" id="aux455" from="58to55" to="8to11"/>
    <trip depart="93" id="aux456" from="18to17" to="49to50"/>
    <trip depart="93" id="aux458" from="60to43" to="49to50"/>
    <trip depart="93" id="aux459" from="50to47" to="17to14"/>
    <trip depart="94" id="aux445" from="57to56" to="51to50"/>
    <trip depart="94" id="aux452" from="11to8" to="55to58"/>
    <trip depart="94" id="aux460" from="10to8" to="17to18"/>
    <trip depart="94" id="aux461" from="24to23" to="49to51"/>
    <trip depart="95" id="aux416" from="62to61" to="51to52"/>
    <trip depart="95" id="aux448" from="6to5" to="25to37"/>
    <trip depart="95" id="aux457" from="58to55" to="5to6"/>
    <trip depart="95" id="aux467" from="37to38" to="23to24"/>
    <trip depart="95" id="aux468" from="14to17" to="61to62"/>
    <trip depart="95" id="aux469" from="58to61" to="50to51"/>
    <trip depart="96" id="aux451" from="57to56" to="61to62"/>
    <trip depart="96" id="aux466" from="24to23" to="38to37"/>
    <trip depart="96" id="aux470" from="18to17" to="5to6"/>
    <trip depart="96" id="aux472" from="51to50" to="51to50"/>
    <trip depart="96" id="aux474" from="52to51" to="21to50"/>
    <trip depart="97" id="aux422" from="62to61" to="4to25"/>
    <trip depart="97" id="aux462" from="58to55" to="56to57"/>
    <trip depart="97" id="aux475" from="50to47" to="8to10"/>
    <trip depart="97" id="aux477" from="11to8" to="55to58"/>
    <trip depart="97" id="aux478" from="10to8" to="25to37"/>
    <trip depart="98" id="aux471" from="18to17" to="12to14"/>
    <trip depart="98" id="aux479" from="57to56" to="8to10"/>
    <trip depart="98" id="aux480" from="6to5" to="8to10"/>
    <trip depart="98" id="aux482" from="14to12" to="50to51"/>
    <trip depart="98" id="aux483" from="14to17" to="5to6"/>
    <trip depart="98" id="aux484" from="50to51" to="38to37"/>
    <trip depart="99" id="aux434" from="62to61" to="43to60"/>
    <trip depart="99" id="aux464" from="58to55" to="51to52"/>
    <trip depart="99" id="aux485" from="60to59" to="8to11"/>
    <trip depart="99" id="aux486" from="37to38" to="5to6"/>
    <trip depart="99" id="aux487" from="24to23" to="38to37"/>
    <trip depart="99" id="aux489" from="10to8" to="59to60"/>
    <trip depart="100" id="aux481" from="57to56" to="25to37"/>
    <trip depart="100" id="aux494" from="14to12" to="21to50"/>
    <trip depart="101" id="aux441" from="62to61" to="61to60"/>
    <trip depart="101" id="aux488" from="24to23" to="51to52"/>
    <trip depart="101" id="aux492" from="58to55" to="59to60"/>
    <trip depart="101" id="aux497" from="10to8" to="43to60"/>