<routes>
    <vehicle id="aux0" depart="2">
        <route edges="1/5to2/5 2/5to2/6 2/6to3/6" />
    </vehicle>
    <vehicle id="aux1" depart="2">
        <route edges="4/2to4/3 4/3to4/4 4/4to4/5 4/5to3/5 3/5to3/4" />
    </vehicle>
    <vehicle id="aux2" depart="2">
        <route edges="5/1to4/1 4/1to4/2 4/2to4/3 4/3to5/3 5/3to6/3 6/3to6/4 6/4to5/4" />
    </vehicle>
    <vehicle id="aux3" depart="2">
        <route edges="1/1to1/2 1/2to2/2 2/2to2/1 2/1to3/1 3/1to4/1 4/1to5/1 5/1to5/2 5/2to4/2" />
    </vehicle>
    <vehicle id="aux4" depart="2">
        <route edges="2/5to1/5 1/5to0/5 0/5to0/4 0/4to1/4 1/4to1/5" />
    </vehicle>
    <vehicle id="aux5" depart="2">
        <route edges="0/4to0/5 0/5to1/5 1/5to2/5 2/5to3/5 3/5to4/5 4/5to4/6" />
    </vehicle>
    <vehicle id="aux6" depart="2">
        <route edges="0/2to0/3 0/3to0/4 0/4to0/5 0/5to1/5 1/5to1/6 1/6to2/6 2/6to3/6 3/6to4/6 4/6to5/6 5/6to6/6 6/6to6/5" />
    </vehicle>
    <vehicle id="aux7" depart="2">
        <route edges="5/2to4/2 4/2to3/2 3/2to2/2 2/2to1/2 1/2to1/3 1/3to1/4 1/4to1/5 1/5to1/6 1/6to0/6" />
    </vehicle>
    <vehicle id="aux8" depart="2">
        <route edges="4/2to5/2 5/2to5/3 5/3to4/3 4/3to3/3 3/3to2/3 2/3to2/4 2/4to2/5 2/5to1/5 1/5to1/4" />
    </vehicle>
    <vehicle id="aux9" depart="2">
        <route edges="1/2to2/2 2/2to2/1 2/1to2/0" />
    </vehicle>
    <vehicle id="aux10" depart="3">
        <route edges="2/1to2/0 2/0to3/0 3/0to3/1 3/1to3/2 3/2to3/3 3/3to3/4 3/4to3/5" />
    </vehicle>
    <vehicle id="aux11" depart="3">
        <route edges="3/2to3/1 3/1to2/1 2/1to1/1 1/1to1/2 1/2to1/3 1/3to1/4" />
    </vehicle>
    <vehicle id="aux12" depart="3">
        <route edges="3/3to3/2 3/2to3/1 3/1to4/1 4/1to5/1 5/1to5/0" />
    </vehicle>
    <vehicle id="aux14" depart="3">
        <route edges="6/5to6/6 6/6to5/6 5/6to5/5 5/5to4/5 4/5to4/6" />
    </vehicle>
    <vehicle id="aux15" depart="3">
        <route edges="4/3to5/3 5/3to6/3 6/3to6/4" />
    </vehicle>
    <vehicle id="aux16" depart="3">
        <route edges="2/6to3/6 3/6to3/5 3/5to3/4 3/4to4/4 4/4to5/4 5/4to6/4 6/4to6/3" />
    </vehicle>
    <vehicle id="aux17" depart="3">
        <route edges="2/6to2/5 2/5to3/5 3/5to4/5 4/5to5/5 5/5to5/6 5/6to4/6" />
    </vehicle>
    <vehicle id="aux19" depart="3">
        <route edges="3/0to3/1 3/1to3/2 3/2to3/3 3/3to3/4 3/4to4/4 4/4to5/4 5/4to5/5" />
    </vehicle>
    <vehicle id="aux21" depart="4">
        <route edges="5/1to4/1 4/1to4/2 4/2to5/2 5/2to5/1 5/1to5/0 5/0to4/0" />
    </vehicle>
    <vehicle id="aux22" depart="4">
        <route edges="6/6to5/6 5/6to4/6 4/6to4/5 4/5to4/4" />
    </vehicle>
    <vehicle id="aux23" depart="4">
        <route edges="3/2to2/2 2/2to1/2 1/2to1/1 1/1to1/0 1/0to0/0" />
    </vehicle>
    <vehicle id="aux24" depart="4">
        <route edges="4/1to5/1 5/1to5/2 5/2to4/2 4/2to4/3 4/3to4/4 4/4to4/5 4/5to3/5" />
    </vehicle>
    <vehicle id="aux25" depart="4">
        <route edges="4/4to5/4 5/4to5/3 5/3to4/3 4/3to3/3 3/3to2/3 2/3to1/3 1/3to1/2 1/2to1/1 1/1to0/1" />
    </vehicle>
    <vehicle id="aux26" depart="4">
        <route edges="1/3to1/2 1/2to1/1 1/1to2/1" />
    </vehicle>
    <vehicle id="aux27" depart="4">
        <route edges="3/6to3/5 3/5to3/4 3/4to4/4 4/4to5/4 5/4to5/3 5/3to4/3" />
    </vehicle>
    <vehicle id="aux28" depart="4">
        <route edges="2/0to1/0 1/0to1/1 1/1to2/1 2/1to3/1 3/1to4/1 4/1to5/1 5/1to5/2" />
    </vehicle>
    <vehicle id="aux29" depart="4">
        <route edges="4/1to4/2 4/2to3/2 3/2to2/2 2/2to1/2 1/2to0/2 0/2to0/3 0/3to0/4 0/4to0/5 0/5to1/5" />
    </vehicle>
    <vehicle id="aux13" depart="5">
        <route edges="3/3to3/2 3/2to2/2 2/2to2/3 2/3to2/4 2/4to2/5 2/5to1/5" />
    </vehicle>
    <vehicle id="aux18" depart="5">
        <route edges="2/1to2/0 2/0to1/0 1/0to1/1 1/1to2/1 2/1to2/2" />
    </vehicle>
    <vehicle id="aux30" depart="5">
        <route edges="6/4to6/3 6/3to5/3 5/3to4/3 4/3to3/3 3/3to2/3 2/3to2/4 2/4to3/4" />
    </vehicle>
    <vehicle id="aux31" depart="5">
        <route edges="0/5to0/4 0/4to0/3 0/3to0/2 0/2to0/1 0/1to1/1 1/1to2/1 2/1to3/1 3/1to4/1" />
    </vehicle>
    <vehicle id="aux33" depart="5">
        <route edges="6/6to6/5 6/5to5/5 5/5to5/4 5/4to6/4 6/4to6/5" />
    </vehicle>
    <vehicle id="aux34" depart="5">
        <route edges="2/0to3/0 3/0to3/1 3/1to2/1 2/1to1/1 1/1to0/1 0/1to0/2 0/2to0/3 0/3to0/4 0/4to0/5 0/5to0/6 0/6to1/6" />
    </vehicle>
    <vehicle id="aux35" depart="5">
        <route edges="1/1to1/0 1/0to2/0 2/0to3/0 3/0to4/0 4/0to5/0 5/0to5/1 5/1to4/1" />
    </vehicle>
    <vehicle id="aux37" depart="5">
        <route edges="3/2to3/3 3/3to3/4 3/4to4/4 4/4to5/4 5/4to5/5 5/5to4/5" />
    </vehicle>
    <vehicle id="aux38" depart="5">
        <route edges="0/3to1/3 1/3to1/2 1/2to1/1 1/1to1/0 1/0to2/0 2/0to3/0 3/0to4/0 4/0to5/0" />
    </vehicle>
    <vehicle id="aux39" depart="5">
        <route edges="0/3to0/2 0/2to0/1 0/1to1/1 1/1to2/1 2/1to3/1 3/1to4/1 4/1to5/1 5/1to5/0 5/0to4/0" />
    </vehicle>
    <vehicle id="aux32" depart="6">
        <route edges="3/6to3/5 3/5to2/5 2/5to1/5 1/5to0/5" />
    </vehicle>
    <vehicle id="aux36" depart="6">
        <route edges="1/3to1/2 1/2to1/1 1/1to2/1 2/1to3/1 3/1to4/1 4/1to5/1 5/1to6/1 6/1to6/0" />
    </vehicle>
    <vehicle id="aux40" depart="6">
        <route edges="4/3to4/2 4/2to5/2 5/2to5/3 5/3to6/3 6/3to6/2" />
    </vehicle>
    <vehicle id="aux41" depart="6">
        <route edges="4/5to4/6 4/6to5/6 5/6to5/5 5/5to5/4 5/4to5/3 5/3to6/3 6/3to6/2 6/2to5/2" />
    </vehicle>
    <vehicle id="aux42" depart="6">
        <route edges="5/3to5/2 5/2to4/2 4/2to3/2 3/2to2/2 2/2to2/3 2/3to1/3 1/3to1/2" />
    </vehicle>
    <vehicle id="aux43" depart="6">
        <route edges="2/4to2/5 2/5to3/5 3/5to4/5 4/5to4/6 4/6to3/6" />
    </vehicle>
    <vehicle id="aux44" depart="6">
        <route edges="5/4to5/5 5/5to6/5 6/5to6/4 6/4to5/4" />
    </vehicle>
    <vehicle id="aux45" depart="6">
        <route edges="2/2to2/1 2/1to3/1 3/1to3/2 3/2to3/3 3/3to3/4 3/4to3/5 3/5to4/5 4/5to5/5 5/5to6/5" />
    </vehicle>
    <vehicle id="aux46" depart="6">
        <route edges="0/4to0/3 0/3to0/2 0/2to1/2 1/2to2/2 2/2to3/2 3/2to4/2 4/2to4/3 4/3to3/3" />
    </vehicle>
    <vehicle id="aux47" depart="6">
        <route edges="5/6to4/6 4/6to3/6 3/6to2/6 2/6to1/6 1/6to1/5 1/5to0/5 0/5to0/6" />
    </vehicle>
    <vehicle id="aux49" depart="6">
        <route edges="2/1to3/1 3/1to3/2 3/2to4/2 4/2to5/2 5/2to5/3" />
    </vehicle>
    <vehicle id="aux20" depart="7">
        <route edges="2/1to2/0 2/0to1/0 1/0to1/1 1/1to1/2 1/2to1/3 1/3to1/4 1/4to2/4" />
    </vehicle>
    <vehicle id="aux50" depart="7">
        <route edges="5/5to6/5 6/5to6/4 6/4to6/3 6/3to6/2 6/2to6/1 6/1to6/0" />
    </vehicle>
    <vehicle id="aux51" depart="7">
        <route edges="3/5to2/5 2/5to2/4 2/4to2/3 2/3to2/2 2/2to3/2 3/2to3/1 3/1to2/1" />
    </vehicle>
    <vehicle id="aux52" depart="7">
        <route edges="6/4to6/3 6/3to5/3 5/3to4/3 4/3to3/3 3/3to3/2 3/2to3/1 3/1to3/0 3/0to2/0 2/0to2/1" />
    </vehicle>
    <vehicle id="aux53" depart="7">
        <route edges="1/6to1/5 1/5to1/4 1/4to1/3 1/3to1/2 1/2to1/1 1/1to2/1 2/1to3/1 3/1to4/1 4/1to5/1 5/1to5/0" />
    </vehicle>
    <vehicle id="aux54" depart="7">
        <route edges="6/3to6/4 6/4to5/4 5/4to4/4 4/4to3/4 3/4to2/4 2/4to1/4 1/4to1/5 1/5to1/6" />
    </vehicle>
    <vehicle id="aux55" depart="7">
        <route edges="2/3to2/2 2/2to3/2 3/2to3/3 3/3to4/3 4/3to4/4" />
    </vehicle>
    <vehicle id="aux56" depart="7">
        <route edges="0/2to0/3 0/3to0/4 0/4to1/4 1/4to2/4 2/4to3/4 3/4to4/4 4/4to5/4 5/4to5/3" />
    </vehicle>
    <vehicle id="aux57" depart="7">
        <route edges="6/2to6/3 6/3to5/3 5/3to4/3 4/3to4/2" />
    </vehicle>
    <vehicle id="aux59" depart="7">
        <route edges="4/4to4/5 4/5to3/5 3/5to2/5 2/5to1/5 1/5to1/4 1/4to1/3 1/3to1/2 1/2to1/1 1/1to0/1" />
    </vehicle>
    <vehicle id="aux48" depart="8">
        <route edges="3/6to3/5 3/5to2/5 2/5to1/5 1/5to1/4 1/4to1/3 1/3to1/2 1/2to1/1 1/1to1/0 1/0to0/0 0/0to0/1" />
    </vehicle>
    <vehicle id="aux58" depart="8">
        <route edges="1/3to1/2 1/2to2/2 2/2to2/3 2/3to2/4 2/4to2/5 2/5to3/5 3/5to4/5 4/5to5/5 5/5to5/4" />
    </vehicle>
    <vehicle id="aux60" depart="8">
        <route edges="2/4to2/3 2/3to1/3 1/3to0/3 0/3to0/4 0/4to0/5 0/5to1/5" />
    </vehicle>
    <vehicle id="aux61" depart="8">
        <route edges="3/0to3/1 3/1to2/1 2/1to2/2 2/2to2/3 2/3to2/4 2/4to2/5 2/5to1/5 1/5to1/4" />
    </vehicle>
    <vehicle id="aux62" depart="8">
        <route edges="3/6to2/6 2/6to2/5 2/5to2/4 2/4to2/3 2/3to2/2 2/2to2/1 2/1to3/1 3/1to4/1 4/1to5/1 5/1to6/1 6/1to6/2" />
    </vehicle>
    <vehicle id="aux63" depart="8">
        <route edges="5/1to5/0 5/0to4/0 4/0to4/1 4/1to5/1" />
    </vehicle>
    <vehicle id="aux64" depart="8">
        <route edges="1/2to1/1 1/1to2/1 2/1to3/1" />
    </vehicle>
    <vehicle id="aux65" depart="8">
        <route edges="1/1to1/2 1/2to1/3 1/3to2/3 2/3to3/3 3/3to3/4" />
    </vehicle>
    <vehicle id="aux66" depart="8">
        <route edges="6/6to6/5 6/5to5/5 5/5to5/4 5/4to5/3 5/3to5/2 5/2to5/1" />
    </vehicle>
    <vehicle id="aux67" depart="8">
        <route edges="0/6to1/6 1/6to1/5" />
    </vehicle>
    <vehicle id="aux68" depart="8">
        <route edges="5/6to6/6 6/6to6/5 6/5to5/5 5/5to4/5 4/5to3/5 3/5to2/5 2/5to1/5 1/5to1/4 1/4to0/4" />
    </vehicle>
    <vehicle id="aux69" depart="8">
        <route edges="4/2to5/2 5/2to5/3 5/3to4/3 4/3to4/4 4/4to4/5 4/5to4/6 4/6to3/6" />
    </vehicle>
    <vehicle id="aux70" depart="9">
        <route edges="4/1to5/1 5/1to5/0 5/0to4/0 4/0to3/0 3/0to2/0 2/0to2/1 2/1to2/2" />
    </vehicle>
    <vehicle id="aux71" depart="9">
        <route edges="4/3to4/2 4/2to3/2 3/2to2/2 2/2to2/1" />
    </vehicle>
    <vehicle id="aux72" depart="9">
        <route edges="5/3to4/3 4/3to4/4 4/4to3/4 3/4to3/3" />
    </vehicle>
    <vehicle id="aux73" depart="9">
        <route edges="0/4to0/5 0/5to1/5 1/5to1/4 1/4to1/3 1/3to1/2 1/2to2/2 2/2to3/2 3/2to4/2 4/2to4/3" />
    </vehicle>
    <vehicle id="aux74" depart="9">
        <route edges="3/4to2/4 2/4to1/4 1/4to1/3 1/3to1/2 1/2to1/1 1/1to0/1" />
    </vehicle>
    <vehicle id="aux75" depart="9">
        <route edges="6/2to6/1 6/1to5/1 5/1to4/1 4/1to3/1 3/1to2/1 2/1to1/1 1/1to1/0" />
    </vehicle>
    <vehicle id="aux76" depart="9">
        <route edges="4/6to4/5 4/5to4/4 4/4to5/4" />
    </vehicle>
    <vehicle id="aux77" depart="9">
        <route edges="2/0to1/0 1/0to1/1 1/1to2/1 2/1to3/1 3/1to3/2 3/2to2/2" />
    </vehicle>
    <vehicle id="aux78" depart="9">
        <route edges="0/5to1/5 1/5to1/4 1/4to1/3 1/3to1/2 1/2to1/1 1/1to2/1 2/1to3/1 3/1to4/1 4/1to4/0 4/0to3/0" />
    </vehicle>
    <vehicle id="aux79" depart="9">
        <route edges="2/6to3/6 3/6to3/5 3/5to2/5 2/5to1/5 1/5to1/4 1/4to0/4 0/4to0/5" />
    </vehicle>
    <vehicle id="aux80" depart="10">
        <route edges="0/6to1/6" />
    </vehicle>
    <vehicle id="aux81" depart="10">
        <route edges="2/5to3/5 3/5to3/4 3/4to3/3 3/3to3/2 3/2to3/1 3/1to3/0 3/0to4/0 4/0to5/0 5/0to6/0" />
    </vehicle>
    <vehicle id="aux82" depart="10">
        <route edges="5/5to5/4 5/4to6/4 6/4to6/3" />
    </vehicle>
    <vehicle id="aux83" depart="10">
        <route edges="6/4to6/3 6/3to5/3 5/3to4/3 4/3to3/3 3/3to2/3 2/3to2/4 2/4to1/4" />
    </vehicle>
    <vehicle id="aux84" depart="10">
        <route edges="3/5to3/4 3/4to3/3 3/3to4/3 4/3to4/2 4/2to3/2" />
    </vehicle>
    <vehicle id="aux85" depart="10">
        <route edges="1/4to2/4 2/4to2/3 2/3to3/3 3/3to4/3 4/3to5/3 5/3to5/4 5/4to4/4" />
    </vehicle>
    <vehicle id="aux86" depart="10">
        <route edges="6/3to6/2 6/2to5/2 5/2to4/2 4/2to3/2 3/2to3/1 3/1to3/0 3/0to2/0 2/0to2/1" />
    </vehicle>
    <vehicle id="aux87" depart="10">
        <route edges="0/1to0/0 0/0to1/0" />
    </vehicle>
    <vehicle id="aux88" depart="10">
        <route edges="5/5to6/5 6/5to6/4 6/4to5/4 5/4to4/4 4/4to4/3 4/3to4/2 4/2to3/2 3/2to3/3" />
    </vehicle>
    <vehicle id="aux89" depart="10">
        <route edges="1/1to1/2 1/2to1/3 1/3to1/4 1/4to1/5 1/5to1/6 1/6to2/6 2/6to3/6 3/6to4/6" />
    </vehicle>
    <vehicle id="aux90" depart="11">
        <route edges="5/4to5/3 5/3to4/3 4/3to3/3 3/3to2/3 2/3to1/3 1/3to1/2 1/2to0/2 0/2to0/3 0/3to1/3" />
    </vehicle>
    <vehicle id="aux92" depart="11">
        <route edges="5/6to5/5 5/5to4/5 4/5to3/5 3/5to2/5 2/5to2/4 2/4to3/4" />
    </vehicle>
    <vehicle id="aux93" depart="11">
        <route edges="5/4to6/4 6/4to6/3 6/3to5/3 5/3to4/3 4/3to3/3 3/3to2/3 2/3to1/3 1/3to1/2 1/2to1/1 1/1to0/1" />
    </vehicle>
    <vehicle id="aux94" depart="11">
        <route edges="1/4to1/5 1/5to0/5 0/5to0/4 0/4to0/3 0/3to0/2 0/2to1/2 1/2to1/1 1/1to0/1" />
    </vehicle>
    <vehicle id="aux95" depart="11">
        <route edges="3/4to3/3 3/3to2/3 2/3to1/3 1/3to1/2 1/2to1/1 1/1to1/0 1/0to2/0" />
    </vehicle>
    <vehicle id="aux96" depart="11">
        <route edges="1/5to1/4 1/4to2/4 2/4to3/4 3/4to4/4 4/4to4/5" />
    </vehicle>
    <vehicle id="aux97" depart="11">
        <route edges="1/5to1/6 1/6to2/6 2/6to2/5 2/5to1/5 1/5to1/4 1/4to1/3 1/3to2/3 2/3to2/4" />
    </vehicle>
    <vehicle id="aux98" depart="11">
        <route edges="5/5to4/5 4/5to3/5 3/5to2/5 2/5to2/4 2/4to2/3 2/3to2/2 2/2to2/1 2/1to2/0 2/0to1/0" />
    </vehicle>
    <vehicle id="aux99" depart="11">
        <route edges="1/1to0/1 0/1to0/2 0/2to1/2 1/2to1/1 1/1to2/1 2/1to3/1 3/1to4/1 4/1to5/1 5/1to6/1 6/1to6/0" />
    </vehicle>
    <vehicle id="aux100" depart="12">
        <route edges="1/0to2/0 2/0to2/1 2/1to2/2 2/2to2/3 2/3to2/4 2/4to2/5 2/5to2/6 2/6to3/6 3/6to4/6 4/6to5/6 5/6to6/6 6/6to6/5" />
    </vehicle>
    <vehicle id="aux101" depart="12">
        <route edges="4/1to4/0 4/0to3/0 3/0to3/1 3/1to2/1 2/1to2/0 2/0to3/0 3/0to4/0" />
    </vehicle>
    <vehicle id="aux102" depart="12">
        <route edges="4/3to3/3 3/3to2/3 2/3to1/3 1/3to0/3 0/3to0/4" />
    </vehicle>
    <vehicle id="aux103" depart="12">
        <route edges="1/2to2/2 2/2to2/1 2/1to1/1 1/1to0/1 0/1to0/2" />
    </vehicle>
    <vehicle id="aux104" depart="12">
        <route edges="0/6to0/5 0/5to0/4 0/4to0/3 0/3to1/3" />
    </vehicle>
    <vehicle id="aux105" depart="12">
        <route edges="0/2to1/2 1/2to2/2 2/2to3/2 3/2to4/2 4/2to5/2 5/2to6/2 6/2to6/1 6/1to5/1" />
    </vehicle>
    <vehicle id="aux106" depart="12">
        <route edges="2/6to2/5 2/5to3/5 3/5to4/5 4/5to5/5 5/5to5/6 5/6to4/6" />
    </vehicle>
    <vehicle id="aux107" depart="12">
        <route edges="3/1to2/1 2/1to2/0 2/0to3/0 3/0to4/0 4/0to5/0 5/0to6/0" />
    </vehicle>
    <vehicle id="aux108" depart="12">
        <route edges="1/3to1/4 1/4to1/5 1/5to2/5 2/5to3/5 3/5to4/5 4/5to5/5 5/5to5/6 5/6to4/6" />
    </vehicle>
    <vehicle id="aux109" depart="12">
        <route edges="3/4to4/4 4/4to4/3 4/3to5/3 5/3to6/3 6/3to6/4 6/4to5/4" />
    </vehicle>
    <vehicle id="aux91" depart="12">
        <route edges="0/6to1/6 1/6to1/5 1/5to1/4 1/4to0/4 0/4to0/5" />
    </vehicle>
    <vehicle id="aux110" depart="13">
        <route edges="3/5to4/5 4/5to4/4 4/4to4/3 4/3to4/2 4/2to4/1 4/1to4/0 4/0to3/0 3/0to3/1" />
    </vehicle>
    <vehicle id="aux111" depart="13">
        <route edges="1/5to2/5 2/5to2/4 2/4to3/4 3/4to4/4 4/4to4/3" />
    </vehicle>
    <vehicle id="aux112" depart="13">
        <route edges="2/1to1/1 1/1to1/2 1/2to1/3 1/3to2/3 2/3to3/3 3/3to4/3 4/3to5/3 5/3to5/4" />
    </vehicle>
    <vehicle id="aux113" depart="13">
        <route edges="4/1to3/1 3/1to2/1 2/1to2/2" />
    </vehicle>
    <vehicle id="aux114" depart="13">
        <route edges="2/6to1/6 1/6to1/5 1/5to1/4 1/4to2/4 2/4to3/4 3/4to4/4 4/4to5/4 5/4to5/5" />
    </vehicle>
    <vehicle id="aux115" depart="13">
        <route edges="5/5to6/5 6/5to6/4 6/4to5/4 5/4to4/4 4/4to3/4 3/4to2/4 2/4to2/3 2/3to2/2 2/2to1/2 1/2to1/3" />
    </vehicle>
    <vehicle id="aux116" depart="13">
        <route edges="2/5to1/5 1/5to1/4 1/4to1/3 1/3to1/2 1/2to1/1 1/1to2/1 2/1to3/1 3/1to4/1 4/1to4/0 4/0to3/0" />
    </vehicle>
    <vehicle id="aux119" depart="13">
        <route edges="2/2to2/3 2/3to1/3 1/3to1/4 1/4to1/5 1/5to1/6" />
    </vehicle>
    <vehicle id="aux120" depart="14">
        <route edges="3/1to2/1 2/1to2/2 2/2to1/2" />
    </vehicle>
    <vehicle id="aux121" depart="14">
        <route edges="6/6to6/5 6/5to5/5 5/5to4/5 4/5to4/4 4/4to4/3 4/3to4/2 4/2to5/2" />
    </vehicle>
    <vehicle id="aux122" depart="14">
        <route edges="2/5to2/4 2/4to2/3 2/3to3/3 3/3to4/3 4/3to5/3 5/3to6/3 6/3to6/4 6/4to5/4" />
    </vehicle>
    <vehicle id="aux123" depart="14">
        <route edges="3/0to4/0 4/0to4/1 4/1to4/2 4/2to3/2 3/2to3/1 3/1to4/1" />
    </vehicle>
    <vehicle id="aux124" depart="14">
        <route edges="5/5to5/4 5/4to4/4 4/4to3/4 3/4to3/3 3/3to3/2 3/2to3/1 3/1to3/0 3/0to2/0 2/0to2/1" />
    </vehicle>
    <vehicle id="aux126" depart="14">
        <route edges="1/1to2/1 2/1to2/0 2/0to1/0" />
    </vehicle>
    <vehicle id="aux127" depart="14">
        <route edges="5/5to4/5 4/5to4/4 4/4to4/3 4/3to4/2 4/2to5/2 5/2to6/2 6/2to6/3" />
    </vehicle>
    <vehicle id="aux128" depart="14">
        <route edges="1/2to1/1 1/1to0/1 0/1to0/2 0/2to0/3 0/3to0/4 0/4to1/4 1/4to2/4" />
    </vehicle>
    <vehicle id="aux129" depart="14">
        <route edges="3/5to3/6 3/6to2/6 2/6to2/5 2/5to2/4 2/4to2/3 2/3to2/2" />
    </vehicle>
    <vehicle id="aux117" depart="15">
        <route edges="3/5to4/5 4/5to4/6 4/6to5/6 5/6to6/6" />
    </vehicle>
    <vehicle id="aux118" depart="15">
        <route edges="4/1to3/1 3/1to3/0 3/0to4/0 4/0to5/0 5/0to5/1 5/1to4/1" />
    </vehicle>
    <vehicle id="aux125" depart="15">
        <route edges="2/2to2/1 2/1to3/1 3/1to3/2 3/2to3/3 3/3to3/4 3/4to3/5 3/5to4/5 4/5to5/5" />
    </vehicle>
    <vehicle id="aux130" depart="15">
        <route edges="0/6to0/5 0/5to0/4 0/4to0/3 0/3to0/2 0/2to0/1 0/1to1/1 1/1to2/1" />
    </vehicle>
    <vehicle id="aux131" depart="15">
        <route edges="5/6to4/6 4/6to4/5 4/5to4/4 4/4to4/3 4/3to4/2 4/2to4/1 4/1to4/0 4/0to5/0 5/0to6/0" />
    </vehicle>
    <vehicle id="aux132" depart="15">
        <route edges="0/6to1/6 1/6to1/5 1/5to2/5 2/5to2/6" />
    </vehicle>
    <vehicle id="aux134" depart="15">
        <route edges="3/0to2/0 2/0to2/1 2/1to2/2 2/2to2/3 2/3to3/3 3/3to4/3" />
    </vehicle>
    <vehicle id="aux136" depart="15">
        <route edges="6/2to6/3 6/3to5/3 5/3to4/3 4/3to3/3 3/3to3/2 3/2to3/1 3/1to4/1" />
    </vehicle>
    <vehicle id="aux137" depart="15">
        <route edges="6/4to6/3 6/3to5/3 5/3to4/3 4/3to3/3 3/3to2/3 2/3to1/3 1/3to0/3" />
    </vehicle>
    <vehicle id="aux139" depart="15">
        <route edges="1/1to1/2 1/2to0/2 0/2to0/3 0/3to0/4 0/4to0/5" />
    </vehicle>
    <vehicle id="aux135" depart="16">
        <route edges="1/1to2/1 2/1to2/0 2/0to3/0" />
    </vehicle>
    <vehicle id="aux138" depart="16">
        <route edges="1/2to1/1 1/1to2/1 2/1to2/2 2/2to2/3 2/3to2/4 2/4to2/5 2/5to3/5" />
    </vehicle>
    <vehicle id="aux140" depart="16">
        <route edges="1/3to1/4 1/4to0/4 0/4to0/5 0/5to1/5" />
    </vehicle>
    <vehicle id="aux141" depart="16">
        <route edges="4/4to4/3 4/3to3/3 3/3to2/3 2/3to1/3 1/3to1/2 1/2to1/1 1/1to2/1" />
    </vehicle>
    <vehicle id="aux142" depart="16">
        <route edges="3/3to3/4 3/4to4/4 4/4to4/3 4/3to4/2 4/2to4/1 4/1to4/0 4/0to5/0 5/0to6/0 6/0to6/1" />
    </vehicle>
    <vehicle id="aux144" depart="16">
        <route edges="4/1to4/0 4/0to3/0 3/0to2/0 2/0to1/0" />
    </vehicle>
    <vehicle id="aux145" depart="16">
        <route edges="2/3to2/4 2/4to2/5 2/5to3/5 3/5to4/5 4/5to4/6" />
    </vehicle>
    <vehicle id="aux147" depart="16">
        <route edges="3/4to3/3 3/3to2/3 2/3to1/3 1/3to1/4 1/4to1/5 1/5to1/6 1/6to0/6" />
    </vehicle>
    <vehicle id="aux148" depart="16">
        <route edges="1/5to1/4 1/4to1/3 1/3to1/2" />
    </vehicle>
    <vehicle id="aux149" depart="16">
        <route edges="5/3to4/3 4/3to3/3 3/3to2/3 2/3to1/3 1/3to0/3 0/3to0/2 0/2to0/1 0/1to1/1" />
    </vehicle>
    <vehicle id="aux133" depart="17">
        <route edges="4/1to3/1 3/1to3/2 3/2to4/2 4/2to5/2 5/2to6/2" />
    </vehicle>
    <vehicle id="aux150" depart="17">
        <route edges="4/6to3/6 3/6to2/6 2/6to1/6 1/6to1/5 1/5to0/5 0/5to0/4 0/4to0/3 0/3to0/2 0/2to0/1 0/1to0/0" />
    </vehicle>
    <vehicle id="aux151" depart="17">
        <route edges="6/2to6/3 6/3to5/3 5/3to4/3 4/3to3/3 3/3to2/3 2/3to1/3 1/3to1/4 1/4to1/5 1/5to2/5" />
    </vehicle>
    <vehicle id="aux155" depart="17">
        <route edges="3/5to4/5 4/5to5/5 5/5to5/6 5/6to4/6 4/6to4/5" />
    </vehicle>
    <vehicle id="aux156" depart="17">
        <route edges="4/3to5/3 5/3to5/2 5/2to4/2 4/2to3/2 3/2to2/2 2/2to2/1 2/1to2/0 2/0to3/0" />
    </vehicle>
    <vehicle id="aux157" depart="17">
        <route edges="2/0to2/1 2/1to2/2 2/2to2/3 2/3to2/4 2/4to3/4 3/4to4/4 4/4to5/4 5/4to5/5" />
    </vehicle>
    <vehicle id="aux158" depart="17">
        <route edges="5/5to5/4 5/4to5/3 5/3to5/2 5/2to5/1 5/1to4/1 4/1to4/2" />
    </vehicle>
    <vehicle id="aux159" depart="17">
        <route edges="6/0to5/0 5/0to5/1 5/1to6/1 6/1to6/2 6/2to5/2" />
    </vehicle>
    <vehicle id="aux143" depart="18">
        <route edges="1/3to1/4 1/4to2/4 2/4to2/3 2/3to2/2 2/2to3/2 3/2to4/2 4/2to5/2 5/2to6/2 6/2to6/3" />
    </vehicle>
    <vehicle id="aux161" depart="18">
        <route edges="6/6to6/5 6/5to5/5 5/5to5/4 5/4to6/4 6/4to6/5" />
    </vehicle>
    <vehicle id="aux162" depart="18">
        <route edges="4/4to4/3 4/3to3/3 3/3to2/3 2/3to1/3 1/3to1/4 1/4to1/5 1/5to0/5 0/5to0/4" />
    </vehicle>
    <vehicle id="aux163" depart="18">
        <route edges="0/0to0/1 0/1to0/2 0/2to1/2 1/2to2/2 2/2to2/3 2/3to1/3" />
    </vehicle>
    <vehicle id="aux165" depart="18">
        <route edges="4/5to3/5 3/5to3/4 3/4to4/4 4/4to4/3 4/3to3/3" />
    </vehicle>
    <vehicle id="aux166" depart="18">
        <route edges="4/2to3/2 3/2to3/1 3/1to3/0 3/0to4/0 4/0to4/1" />
    </vehicle>
    <vehicle id="aux167" depart="18">
        <route edges="3/6to2/6 2/6to2/5 2/5to2/4 2/4to3/4 3/4to4/4 4/4to4/5" />
    </vehicle>
    <vehicle id="aux168" depart="18">
        <route edges="4/4to5/4 5/4to5/5 5/5to4/5 4/5to3/5 3/5to2/5 2/5to2/6" />
    </vehicle>
    <vehicle id="aux146" depart="19">
        <route edges="3/1to2/1 2/1to1/1 1/1to1/0 1/0to0/0 0/0to0/1" />
    </vehicle>
    <vehicle id="aux160" depart="19">
        <route edges="3/6to3/5 3/5to2/5 2/5to1/5 1/5to1/4 1/4to1/3 1/3to1/2 1/2to0/2 0/2to0/3" />
    </vehicle>
    <vehicle id="aux170" depart="19">
        <route edges="5/1to5/2 5/2to4/2 4/2to4/3 4/3to3/3" />
    </vehicle>
    <vehicle id="aux171" depart="19">
        <route edges="3/5to4/5 4/5to4/4 4/4to3/4 3/4to2/4 2/4to1/4 1/4to1/3 1/3to0/3 0/3to0/4" />
    </vehicle>
    <vehicle id="aux174" depart="19">
        <route edges="2/4to1/4 1/4to1/5 1/5to1/6 1/6to2/6 2/6to3/6 3/6to4/6 4/6to5/6 5/6to6/6" />
    </vehicle>
    <vehicle id="aux175" depart="19">
        <route edges="5/3to4/3 4/3to4/4 4/4to4/5 4/5to3/5 3/5to3/4" />
    </vehicle>
    <vehicle id="aux176" depart="19">
        <route edges="0/2to1/2 1/2to1/3 1/3to1/4 1/4to2/4 2/4to3/4 3/4to4/4 4/4to5/4 5/4to6/4 6/4to6/5" />
    </vehicle>
    <vehicle id="aux177" depart="19">
        <route edges="5/3to6/3 6/3to6/2 6/2to5/2 5/2to4/2 4/2to3/2 3/2to2/2 2/2to1/2 1/2to1/1 1/1to0/1" />
    </vehicle>
    <vehicle id="aux178" depart="19">
        <route edges="2/0to3/0 3/0to3/1 3/1to4/1 4/1to5/1 5/1to5/2 5/2to4/2" />
    </vehicle>
    <vehicle id="aux179" depart="19">
        <route edges="4/1to4/2 4/2to3/2 3/2to2/2 2/2to2/1 2/1to1/1 1/1to1/2 1/2to2/2" />
    </vehicle>
    <vehicle id="aux181" depart="20">
        <route edges="0/1to0/2 0/2to0/3 0/3to1/3 1/3to2/3 2/3to2/4 2/4to1/4" />
    </vehicle>
    <vehicle id="aux182" depart="20">
        <route edges="4/6to4/5 4/5to4/4 4/4to4/3 4/3to4/2" />
    </vehicle>
    <vehicle id="aux183" depart="20">
        <route edges="1/5to2/5 2/5to2/4 2/4to2/3 2/3to2/2 2/2to2/1 2/1to3/1 3/1to4/1 4/1to5/1 5/1to6/1" />
    </vehicle>
    <vehicle id="aux184" depart="20">
        <route edges="2/3to2/4 2/4to1/4 1/4to1/3 1/3to1/2 1/2to2/2 2/2to2/1 2/1to1/1" />
    </vehicle>
    <vehicle id="aux185" depart="20">
        <route edges="5/1to4/1 4/1to3/1 3/1to2/1 2/1to1/1 1/1to1/2 1/2to1/3 1/3to1/4 1/4to1/5 1/5to0/5" />
    </vehicle>
    <vehicle id="aux186" depart="20">
        <route edges="5/6to6/6 6/6to6/5 6/5to5/5 5/5to4/5 4/5to3/5 3/5to2/5 2/5to1/5 1/5to0/5" />
    </vehicle>
    <vehicle id="aux187" depart="20">
        <route edges="0/5to1/5 1/5to1/6 1/6to2/6 2/6to2/5" />
    </vehicle>
    <vehicle id="aux188" depart="20">
        <route edges="6/2to6/1 6/1to5/1 5/1to4/1 4/1to3/1 3/1to2/1 2/1to2/2 2/2to2/3 2/3to2/4 2/4to2/5 2/5to3/5" />
    </vehicle>
    <vehicle id="aux189" depart="20">
        <route edges="1/5to1/6 1/6to2/6 2/6to3/6 3/6to4/6 4/6to5/6" />
    </vehicle>
    <vehicle id="aux153" depart="21">
        <route edges="3/1to2/1 2/1to2/0 2/0to3/0 3/0to3/1 3/1to4/1 4/1to5/1 5/1to6/1" />
    </vehicle>
    <vehicle id="aux172" depart="21">
        <route edges="3/5to4/5 4/5to4/4 4/4to4/3 4/3to3/3 3/3to3/4 3/4to4/4" />
    </vehicle>
    <vehicle id="aux173" depart="21">
        <route edges="0/3to1/3" />
    </vehicle>
    <vehicle id="aux190" depart="21">
        <route edges="4/1to4/2 4/2to3/2 3/2to3/3 3/3to3/4 3/4to3/5 3/5to3/6 3/6to2/6" />
    </vehicle>
    <vehicle id="aux192" depart="21">
        <route edges="3/4to3/5 3/5to2/5 2/5to2/4 2/4to2/3 2/3to3/3 3/3to4/3" />
    </vehicle>
    <vehicle id="aux195" depart="21">
        <route edges="3/2to2/2 2/2to2/3 2/3to2/4 2/4to3/4 3/4to4/4 4/4to5/4 5/4to6/4 6/4to6/5" />
    </vehicle>
    <vehicle id="aux196" depart="21">
        <route edges="1/0to0/0 0/0to0/1 0/1to0/2 0/2to0/3 0/3to0/4 0/4to1/4 1/4to2/4" />
    </vehicle>
    <vehicle id="aux197" depart="21">
        <route edges="1/4to1/3 1/3to2/3 2/3to2/4 2/4to2/5 2/5to3/5 3/5to4/5 4/5to5/5 5/5to5/6" />
    </vehicle>
    <vehicle id="aux199" depart="21">
        <route edges="5/4to5/3 5/3to4/3 4/3to4/2 4/2to4/1 4/1to4/0 4/0to5/0 5/0to5/1" />
    </vehicle>
    <vehicle id="aux164" depart="22">
        <route edges="0/4to0/3 0/3to1/3 1/3to2/3 2/3to2/4 2/4to1/4 1/4to1/3" />
    </vehicle>
    <vehicle id="aux193" depart="22">
        <route edges="3/3to3/4 3/4to2/4 2/4to2/3" />
    </vehicle>
    <vehicle id="aux194" depart="22">
        <route edges="5/6to6/6 6/6to6/5 6/5to5/5 5/5to4/5 4/5to4/4 4/4to4/3 4/3to4/2 4/2to4/1 4/1to5/1" />
    </vehicle>
    <vehicle id="aux198" depart="22">
        <route edges="6/5to6/4 6/4to5/4 5/4to4/4 4/4to3/4 3/4to2/4 2/4to1/4 1/4to0/4 0/4to0/3 0/3to0/2 0/2to0/1 0/1to0/0" />
    </vehicle>
    <vehicle id="aux200" depart="22">
        <route edges="5/0to5/1 5/1to4/1 4/1to3/1 3/1to3/0" />
    </vehicle>
    <vehicle id="aux201" depart="22">
        <route edges="2/1to2/2 2/2to1/2 1/2to1/3 1/3to1/4 1/4to2/4 2/4to2/3" />
    </vehicle>
    <vehicle id="aux202" depart="22">
        <route edges="2/2to3/2 3/2to4/2 4/2to4/3 4/3to3/3 3/3to3/2" />
    </vehicle>
    <vehicle id="aux204" depart="22">
        <route edges="5/1to5/2 5/2to5/3 5/3to5/4 5/4to4/4 4/4to4/3" />
    </vehicle>
    <vehicle id="aux205" depart="22">
        <route edges="0/1to1/1 1/1to1/0 1/0to2/0 2/0to3/0 3/0to4/0 4/0to4/1" />
    </vehicle>
    <vehicle id="aux207" depart="22">
        <route edges="5/3to4/3 4/3to3/3 3/3to2/3 2/3to1/3 1/3to1/2 1/2to0/2 0/2to0/3 0/3to1/3" />
    </vehicle>
    <vehicle id="aux208" depart="22">
        <route edges="1/3to1/2 1/2to2/2 2/2to2/3 2/3to2/4 2/4to2/5 2/5to2/6 2/6to3/6" />
    </vehicle>
    <vehicle id="aux209" depart="22">
        <route edges="4/4to3/4 3/4to2/4 2/4to2/5 2/5to2/6 2/6to3/6 3/6to3/5" />
    </vehicle>
    <vehicle id="aux152" depart="23">
        <route edges="1/2to1/1 1/1to1/0 1/0to2/0 2/0to3/0 3/0to4/0" />
    </vehicle>
    <vehicle id="aux180" depart="23">
        <route edges="4/6to3/6 3/6to3/5 3/5to3/4 3/4to3/3 3/3to3/2 3/2to4/2 4/2to5/2 5/2to6/2 6/2to6/3" />
    </vehicle>
    <vehicle id="aux210" depart="23">
        <route edges="3/4to4/4 4/4to4/3 4/3to3/3 3/3to2/3 2/3to1/3 1/3to0/3 0/3to0/2" />
    </vehicle>
    <vehicle id="aux211" depart="23">
        <route edges="0/3to0/2 0/2to1/2 1/2to2/2 2/2to3/2 3/2to4/2 4/2to4/1 4/1to3/1" />
    </vehicle>
    <vehicle id="aux213" depart="23">
        <route edges="5/6to5/5 5/5to4/5 4/5to4/6 4/6to5/6 5/6to6/6 6/6to6/5" />
    </vehicle>
    <vehicle id="aux214" depart="23">
        <route edges="5/5to6/5 6/5to6/4 6/4to5/4" />
    </vehicle>
    <vehicle id="aux215" depart="23">
        <route edges="0/0to1/0 1/0to1/1 1/1to1/2 1/2to2/2 2/2to3/2 3/2to4/2 4/2to5/2 5/2to5/3 5/3to4/3" />
    </vehicle>
    <vehicle id="aux216" depart="23">
        <route edges="3/1to4/1 4/1to4/2 4/2to5/2 5/2to6/2 6/2to6/3 6/3to5/3" />
    </vehicle>
    <vehicle id="aux217" depart="23">
        <route edges="0/2to0/3 0/3to1/3 1/3to1/2 1/2to1/1 1/1to1/0 1/0to2/0 2/0to3/0 3/0to4/0 4/0to4/1" />
    </vehicle>
    <vehicle id="aux218" depart="23">
        <route edges="3/6to2/6 2/6to2/5 2/5to2/4 2/4to3/4 3/4to4/4 4/4to5/4 5/4to6/4 6/4to6/3 6/3to5/3" />
    </vehicle>
    <vehicle id="aux203" depart="24">
        <route edges="2/3to1/3 1/3to1/4 1/4to2/4 2/4to3/4 3/4to3/5" />
    </vehicle>
    <vehicle id="aux206" depart="24">
        <route edges="2/2to3/2 3/2to3/3 3/3to2/3 2/3to1/3 1/3to1/4 1/4to1/5 1/5to1/6 1/6to0/6 0/6to0/5" />
    </vehicle>
    <vehicle id="aux220" depart="24">
        <route edges="3/5to3/4 3/4to3/3 3/3to3/2 3/2to3/1 3/1to3/0 3/0to2/0 2/0to2/1" />
    </vehicle>
    <vehicle id="aux221" depart="24">
        <route edges="1/2to0/2 0/2to0/3 0/3to0/4 0/4to0/5 0/5to1/5 1/5to2/5" />
    </vehicle>
    <vehicle id="aux222" depart="24">
        <route edges="6/5to6/6 6/6to5/6 5/6to4/6 4/6to4/5 4/5to4/4 4/4to5/4 5/4to5/5" />
    </vehicle>
    <vehicle id="aux223" depart="24">