<?xml version="1.0" encoding="UTF-8"?>

<!-- generated on Tue Feb 26 22:22:57 2013 by SUMO netgenerate Version 0.16.0
<?xml version="1.0" encoding="UTF-8"?>

<configuration xmlns:xsi="http://www.w3.org/2001/XMLSchema-instance" xsi:noNamespaceSchemaLocation="http://sumo.sf.net/xsd/netgenerateConfiguration.xsd">

    <grid_network>
        <grid value="true"/>
        <grid.number value="7"/>
        <grid.length value="200"/>
    </grid_network>

    <output>
        <output-file value="net.net.xml"/>
    </output>

    <tls_building>
        <tls.guess value="true"/>
    </tls_building>

    <processing>
        <no-turnarounds value="true"/>
    </processing>

    <building_defaults>
        <default.lanenumber value="2"/>
    </building_defaults>

</configuration>
-->

<net version="0.13" xmlns:xsi="http://www.w3.org/2001/XMLSchema-instance" xsi:noNamespaceSchemaLocation="http://sumo.sf.net/xsd/net_file.xsd">

    <location netOffset="0.00,0.00" convBoundary="0.00,0.00,1200.00,1200.00" origBoundary="0.00,0.00,1200.00,1200.00" projParameter="!"/>

    <edge id=":0/0_0" function="internal">
        <lane id=":0/0_0_0" index="0" speed="13.90" length="18.55" shape="-4.95,6.55 -4.23,1.52 -2.07,-2.07 1.52,-4.23 6.55,-4.95"/>
    </edge>
    <edge id=":0/0_1" function="internal">
        <lane id=":0/0_1_0" index="0" speed="13.90" length="13.22" shape="-1.65,6.55 -1.14,2.96 0.40,0.40 2.96,-1.14 6.55,-1.65"/>
    </edge>
    <edge id=":0/0_2" function="internal">
        <lane id=":0/0_2_0" index="0" speed="13.90" length="2.58" shape="6.55,4.95 5.85,5.05 5.35,5.35 5.05,5.85 4.95,6.55"/>
    </edge>
    <edge id=":0/0_3" function="internal">
        <lane id=":0/0_3_0" index="0" speed="13.90" length="7.90" shape="6.55,1.65 4.41,1.96 2.88,2.88 1.96,4.41 1.65,6.55"/>
    </edge>
    <edge id=":0/1_0" function="internal">
        <lane id=":0/1_0_0" index="0" speed="13.90" length="16.10" shape="-4.95,208.05 -4.95,203.27 -4.95,200.00 -4.95,196.73 -4.95,191.95"/>
    </edge>
    <edge id=":0/1_1" function="internal">
        <lane id=":0/1_1_0" index="0" speed="13.90" length="16.10" shape="-1.65,208.05 -1.65,203.27 -1.65,200.00 -1.65,196.73 -1.65,191.95"/>
    </edge>
    <edge id=":0/1_2" function="internal">
        <lane id=":0/1_2_0" index="0" speed="13.90" length="8.84" shape="-1.65,208.05 -1.04,203.81 0.78,200.78 1.65,200.25"/>
    </edge>
    <edge id=":0/1_8" function="internal">
        <lane id=":0/1_8_0" index="0" speed="13.90" length="6.80" shape="1.65,200.25 3.81,198.96 8.05,198.35"/>
    </edge>
    <edge id=":0/1_3" function="internal">
        <lane id=":0/1_3_0" index="0" speed="13.90" length="5.00" shape="8.05,204.95 6.69,205.14 5.73,205.72 5.14,206.69 4.95,208.05"/>
    </edge>
    <edge id=":0/1_4" function="internal">
        <lane id=":0/1_4_0" index="0" speed="13.90" length="3.13" shape="8.05,201.65 4.95,201.21"/>
    </edge>
    <edge id=":0/1_9" function="internal">
        <lane id=":0/1_9_0" index="0" speed="13.90" length="12.51" shape="4.95,201.21 3.81,201.04 0.78,199.23 -1.04,196.19 -1.65,191.95"/>
    </edge>
    <edge id=":0/1_5" function="internal">
        <lane id=":0/1_5_0" index="0" speed="13.90" length="5.00" shape="4.95,191.95 5.14,193.31 5.73,194.27 6.69,194.86 8.05,195.05"/>
    </edge>
    <edge id=":0/1_6" function="internal">
        <lane id=":0/1_6_0" index="0" speed="13.90" length="16.10" shape="4.95,191.95 4.95,196.73 4.95,200.00 4.95,203.27 4.95,208.05"/>
    </edge>
    <edge id=":0/1_7" function="internal">
        <lane id=":0/1_7_0" index="0" speed="13.90" length="16.10" shape="1.65,191.95 1.65,196.73 1.65,200.00 1.65,203.27 1.65,208.05"/>
    </edge>
    <edge id=":0/2_0" function="internal">
        <lane id=":0/2_0_0" index="0" speed="13.90" length="16.10" shape="-4.95,408.05 -4.95,403.27 -4.95,400.00 -4.95,396.73 -4.95,391.95"/>
    </edge>
    <edge id=":0/2_1" function="internal">
        <lane id=":0/2_1_0" index="0" speed="13.90" length="16.10" shape="-1.65,408.05 -1.65,403.27 -1.65,400.00 -1.65,396.73 -1.65,391.95"/>
    </edge>
    <edge id=":0/2_2" function="internal">
        <lane id=":0/2_2_0" index="0" speed="13.90" length="8.84" shape="-1.65,408.05 -1.04,403.81 0.78,400.77 1.65,400.25"/>
    </edge>
    <edge id=":0/2_8" function="internal">
        <lane id=":0/2_8_0" index="0" speed="13.90" length="6.80" shape="1.65,400.25 3.81,398.96 8.05,398.35"/>
    </edge>
    <edge id=":0/2_3" function="internal">
        <lane id=":0/2_3_0" index="0" speed="13.90" length="5.00" shape="8.05,404.95 6.69,405.14 5.72,405.72 5.14,406.69 4.95,408.05"/>
    </edge>
    <edge id=":0/2_4" function="internal">
        <lane id=":0/2_4_0" index="0" speed="13.90" length="3.13" shape="8.05,401.65 4.95,401.21"/>
    </edge>
    <edge id=":0/2_9" function="internal">
        <lane id=":0/2_9_0" index="0" speed="13.90" length="12.51" shape="4.95,401.21 3.81,401.04 0.78,399.22 -1.04,396.19 -1.65,391.95"/>
    </edge>
    <edge id=":0/2_5" function="internal">
        <lane id=":0/2_5_0" index="0" speed="13.90" length="5.00" shape="4.95,391.95 5.14,393.31 5.73,394.27 6.69,394.86 8.05,395.05"/>
    </edge>
    <edge id=":0/2_6" function="internal">
        <lane id=":0/2_6_0" index="0" speed="13.90" length="16.10" shape="4.95,391.95 4.95,396.73 4.95,400.00 4.95,403.27 4.95,408.05"/>
    </edge>
    <edge id=":0/2_7" function="internal">
        <lane id=":0/2_7_0" index="0" speed="13.90" length="16.10" shape="1.65,391.95 1.65,396.73 1.65,400.00 1.65,403.27 1.65,408.05"/>
    </edge>
    <edge id=":0/3_0" function="internal">
        <lane id=":0/3_0_0" index="0" speed="13.90" length="16.10" shape="-4.95,608.05 -4.95,603.27 -4.95,600.00 -4.95,596.73 -4.95,591.95"/>
    </edge>
    <edge id=":0/3_1" function="internal">
        <lane id=":0/3_1_0" index="0" speed="13.90" length="16.10" shape="-1.65,608.05 -1.65,603.27 -1.65,600.00 -1.65,596.73 -1.65,591.95"/>
    </edge>
    <edge id=":0/3_2" function="internal">
        <lane id=":0/3_2_0" index="0" speed="13.90" length="8.84" shape="-1.65,608.05 -1.04,603.81 0.78,600.77 1.65,600.25"/>
    </edge>
    <edge id=":0/3_8" function="internal">
        <lane id=":0/3_8_0" index="0" speed="13.90" length="6.80" shape="1.65,600.25 3.81,598.96 8.05,598.35"/>
    </edge>
    <edge id=":0/3_3" function="internal">
        <lane id=":0/3_3_0" index="0" speed="13.90" length="5.00" shape="8.05,604.95 6.69,605.14 5.72,605.73 5.14,606.69 4.95,608.05"/>
    </edge>
    <edge id=":0/3_4" function="internal">
        <lane id=":0/3_4_0" index="0" speed="13.90" length="3.13" shape="8.05,601.65 4.95,601.21"/>
    </edge>
    <edge id=":0/3_9" function="internal">
        <lane id=":0/3_9_0" index="0" speed="13.90" length="12.51" shape="4.95,601.21 3.81,601.04 0.78,599.22 -1.04,596.19 -1.65,591.95"/>
    </edge>
    <edge id=":0/3_5" function="internal">
        <lane id=":0/3_5_0" index="0" speed="13.90" length="5.00" shape="4.95,591.95 5.14,593.31 5.73,594.27 6.69,594.86 8.05,595.05"/>
    </edge>
    <edge id=":0/3_6" function="internal">
        <lane id=":0/3_6_0" index="0" speed="13.90" length="16.10" shape="4.95,591.95 4.95,596.73 4.95,600.00 4.95,603.27 4.95,608.05"/>
    </edge>
    <edge id=":0/3_7" function="internal">
        <lane id=":0/3_7_0" index="0" speed="13.90" length="16.10" shape="1.65,591.95 1.65,596.73 1.65,600.00 1.65,603.27 1.65,608.05"/>
    </edge>
    <edge id=":0/4_0" function="internal">
        <lane id=":0/4_0_0" index="0" speed="13.90" length="16.10" shape="-4.95,808.05 -4.95,803.27 -4.95,800.00 -4.95,796.73 -4.95,791.95"/>
    </edge>
    <edge id=":0/4_1" function="internal">
        <lane id=":0/4_1_0" index="0" speed="13.90" length="16.10" shape="-1.65,808.05 -1.65,803.27 -1.65,800.00 -1.65,796.73 -1.65,791.95"/>
    </edge>
    <edge id=":0/4_2" function="internal">
        <lane id=":0/4_2_0" index="0" speed="13.90" length="8.84" shape="-1.65,808.05 -1.04,803.81 0.78,800.77 1.65,800.25"/>
    </edge>
    <edge id=":0/4_8" function="internal">
        <lane id=":0/4_8_0" index="0" speed="13.90" length="6.80" shape="1.65,800.25 3.81,798.96 8.05,798.35"/>
    </edge>
    <edge id=":0/4_3" function="internal">
        <lane id=":0/4_3_0" index="0" speed="13.90" length="5.00" shape="8.05,804.95 6.69,805.14 5.72,805.73 5.14,806.69 4.95,808.05"/>
    </edge>
    <edge id=":0/4_4" function="internal">
        <lane id=":0/4_4_0" index="0" speed="13.90" length="3.13" shape="8.05,801.65 4.95,801.21"/>
    </edge>
    <edge id=":0/4_9" function="internal">
        <lane id=":0/4_9_0" index="0" speed="13.90" length="12.51" shape="4.95,801.21 3.81,801.04 0.78,799.22 -1.04,796.19 -1.65,791.95"/>
    </edge>
    <edge id=":0/4_5" function="internal">
        <lane id=":0/4_5_0" index="0" speed="13.90" length="5.00" shape="4.95,791.95 5.14,793.31 5.73,794.27 6.69,794.86 8.05,795.05"/>
    </edge>
    <edge id=":0/4_6" function="internal">
        <lane id=":0/4_6_0" index="0" speed="13.90" length="16.10" shape="4.95,791.95 4.95,796.73 4.95,800.00 4.95,803.27 4.95,808.05"/>
    </edge>
    <edge id=":0/4_7" function="internal">
        <lane id=":0/4_7_0" index="0" speed="13.90" length="16.10" shape="1.65,791.95 1.65,796.73 1.65,800.00 1.65,803.27 1.65,808.05"/>
    </edge>
    <edge id=":0/5_0" function="internal">
        <lane id=":0/5_0_0" index="0" speed="13.90" length="16.10" shape="-4.95,1008.05 -4.95,1003.27 -4.95,1000.00 -4.95,996.73 -4.95,991.95"/>
    </edge>
    <edge id=":0/5_1" function="internal">
        <lane id=":0/5_1_0" index="0" speed="13.90" length="16.10" shape="-1.65,1008.05 -1.65,1003.27 -1.65,1000.00 -1.65,996.73 -1.65,991.95"/>
    </edge>
    <edge id=":0/5_2" function="internal">
        <lane id=":0/5_2_0" index="0" speed="13.90" length="8.84" shape="-1.65,1008.05 -1.04,1003.81 0.78,1000.77 1.65,1000.25"/>
    </edge>
    <edge id=":0/5_8" function="internal">
        <lane id=":0/5_8_0" index="0" speed="13.90" length="6.80" shape="1.65,1000.25 3.81,998.96 8.05,998.35"/>
    </edge>
    <edge id=":0/5_3" function="internal">
        <lane id=":0/5_3_0" index="0" speed="13.90" length="5.00" shape="8.05,1004.95 6.69,1005.14 5.72,1005.73 5.14,1006.69 4.95,1008.05"/>
    </edge>
    <edge id=":0/5_4" function="internal">
        <lane id=":0/5_4_0" index="0" speed="13.90" length="3.13" shape="8.05,1001.65 4.95,1001.21"/>
    </edge>
    <edge id=":0/5_9" function="internal">
        <lane id=":0/5_9_0" index="0" speed="13.90" length="12.51" shape="4.95,1001.21 3.81,1001.04 0.78,999.22 -1.04,996.19 -1.65,991.95"/>
    </edge>
    <edge id=":0/5_5" function="internal">
        <lane id=":0/5_5_0" index="0" speed="13.90" length="5.00" shape="4.95,991.95 5.14,993.31 5.73,994.27 6.69,994.86 8.05,995.05"/>
    </edge>
    <edge id=":0/5_6" function="internal">
        <lane id=":0/5_6_0" index="0" speed="13.90" length="16.10" shape="4.95,991.95 4.95,996.73 4.95,1000.00 4.95,1003.27 4.95,1008.05"/>
    </edge>
    <edge id=":0/5_7" function="internal">
        <lane id=":0/5_7_0" index="0" speed="13.90" length="16.10" shape="1.65,991.95 1.65,996.73 1.65,1000.00 1.65,1003.27 1.65,1008.05"/>
    </edge>
    <edge id=":0/6_0" function="internal">
        <lane id=":0/6_0_0" index="0" speed="13.90" length="18.55" shape="6.55,1204.95 1.52,1204.23 -2.07,1202.08 -4.23,1198.48 -4.95,1193.45"/>
    </edge>
    <edge id=":0/6_1" function="internal">
        <lane id=":0/6_1_0" index="0" speed="13.90" length="13.22" shape="6.55,1201.65 2.96,1201.14 0.40,1199.60 -1.14,1197.04 -1.65,1193.45"/>
    </edge>
    <edge id=":0/6_2" function="internal">
        <lane id=":0/6_2_0" index="0" speed="13.90" length="2.58" shape="4.95,1193.45 5.05,1194.15 5.35,1194.65 5.85,1194.95 6.55,1195.05"/>
    </edge>
    <edge id=":0/6_3" function="internal">
        <lane id=":0/6_3_0" index="0" speed="13.90" length="7.90" shape="1.65,1193.45 1.96,1195.59 2.88,1197.12 4.41,1198.04 6.55,1198.35"/>
    </edge>
    <edge id=":1/0_0" function="internal">
        <lane id=":1/0_0_0" index="0" speed="13.90" length="5.00" shape="195.05,8.05 194.86,6.69 194.28,5.72 193.31,5.14 191.95,4.95"/>
    </edge>
    <edge id=":1/0_1" function="internal">
        <lane id=":1/0_1_0" index="0" speed="13.90" length="3.13" shape="198.35,8.05 198.79,4.95"/>
    </edge>
    <edge id=":1/0_8" function="internal">
        <lane id=":1/0_8_0" index="0" speed="13.90" length="12.51" shape="198.79,4.95 198.96,3.81 200.77,0.78 203.81,-1.04 208.05,-1.65"/>
    </edge>
    <edge id=":1/0_2" function="internal">
        <lane id=":1/0_2_0" index="0" speed="13.90" length="5.00" shape="208.05,4.95 206.69,5.14 205.73,5.73 205.14,6.69 204.95,8.05"/>
    </edge>
    <edge id=":1/0_3" function="internal">
        <lane id=":1/0_3_0" index="0" speed="13.90" length="16.10" shape="208.05,4.95 203.27,4.95 200.00,4.95 196.73,4.95 191.95,4.95"/>
    </edge>
    <edge id=":1/0_4" function="internal">
        <lane id=":1/0_4_0" index="0" speed="13.90" length="16.10" shape="208.05,1.65 203.27,1.65 200.00,1.65 196.73,1.65 191.95,1.65"/>
    </edge>
    <edge id=":1/0_5" function="internal">
        <lane id=":1/0_5_0" index="0" speed="13.90" length="16.10" shape="191.95,-4.95 196.73,-4.95 200.00,-4.95 203.27,-4.95 208.05,-4.95"/>
    </edge>
    <edge id=":1/0_6" function="internal">
        <lane id=":1/0_6_0" index="0" speed="13.90" length="16.10" shape="191.95,-1.65 196.73,-1.65 200.00,-1.65 203.27,-1.65 208.05,-1.65"/>
    </edge>
    <edge id=":1/0_7" function="internal">
        <lane id=":1/0_7_0" index="0" speed="13.90" length="8.84" shape="191.95,-1.65 196.19,-1.04 199.22,0.78 199.75,1.65"/>
    </edge>
    <edge id=":1/0_9" function="internal">
        <lane id=":1/0_9_0" index="0" speed="13.90" length="6.80" shape="199.75,1.65 201.04,3.81 201.65,8.05"/>
    </edge>
    <edge id=":1/1_0" function="internal">
        <lane id=":1/1_0_0" index="0" speed="13.90" length="5.00" shape="195.05,208.05 194.86,206.69 194.28,205.73 193.31,205.14 191.95,204.95"/>
    </edge>
    <edge id=":1/1_1" function="internal">
        <lane id=":1/1_1_0" index="0" speed="13.90" length="16.10" shape="195.05,208.05 195.05,203.27 195.05,200.00 195.05,196.73 195.05,191.95"/>
    </edge>
    <edge id=":1/1_2" function="internal">
        <lane id=":1/1_2_0" index="0" speed="13.90" length="16.10" shape="198.35,208.05 198.35,203.27 198.35,200.00 198.35,196.73 198.35,191.95"/>
    </edge>
    <edge id=":1/1_3" function="internal">
        <lane id=":1/1_3_0" index="0" speed="13.90" length="6.80" shape="198.35,208.05 198.96,203.81 200.25,201.65"/>
    </edge>
    <edge id=":1/1_14" function="internal">
        <lane id=":1/1_14_0" index="0" speed="13.90" length="8.84" shape="200.25,201.65 200.77,200.78 203.81,198.96 208.05,198.35"/>
    </edge>
    <edge id=":1/1_4" function="internal">
        <lane id=":1/1_4_0" index="0" speed="13.90" length="5.00" shape="208.05,204.95 206.69,205.14 205.73,205.72 205.14,206.69 204.95,208.05"/>
    </edge>
    <edge id=":1/1_5" function="internal">
        <lane id=":1/1_5_0" index="0" speed="13.90" length="16.10" shape="208.05,201.65 203.27,201.65 200.00,201.65 196.73,201.65 191.95,201.65"/>
    </edge>
    <edge id=":1/1_6" function="internal">
        <lane id=":1/1_6_0" index="0" speed="13.90" length="3.13" shape="208.05,201.65 204.95,201.21"/>
    </edge>
    <edge id=":1/1_15" function="internal">
        <lane id=":1/1_15_0" index="0" speed="13.90" length="12.51" shape="204.95,201.21 203.81,201.04 200.78,199.23 198.96,196.19 198.35,191.95"/>
    </edge>
    <edge id=":1/1_7" function="internal">
        <lane id=":1/1_7_0" index="0" speed="13.90" length="5.00" shape="204.95,191.95 205.14,193.31 205.72,194.27 206.69,194.86 208.05,195.05"/>
    </edge>
    <edge id=":1/1_8" function="internal">
        <lane id=":1/1_8_0" index="0" speed="13.90" length="16.10" shape="204.95,191.95 204.95,196.73 204.95,200.00 204.95,203.27 204.95,208.05"/>
    </edge>
    <edge id=":1/1_9" function="internal">
        <lane id=":1/1_9_0" index="0" speed="13.90" length="16.10" shape="201.65,191.95 201.65,196.73 201.65,200.00 201.65,203.27 201.65,208.05"/>
    </edge>
    <edge id=":1/1_10" function="internal">
        <lane id=":1/1_10_0" index="0" speed="13.90" length="6.80" shape="201.65,191.95 201.04,196.19 199.75,198.35"/>
    </edge>
    <edge id=":1/1_16" function="internal">
        <lane id=":1/1_16_0" index="0" speed="13.90" length="8.84" shape="199.75,198.35 199.23,199.22 196.19,201.04 191.95,201.65"/>
    </edge>
    <edge id=":1/1_11" function="internal">
        <lane id=":1/1_11_0" index="0" speed="13.90" length="5.00" shape="191.95,195.05 193.31,194.86 194.27,194.28 194.86,193.31 195.05,191.95"/>
    </edge>
    <edge id=":1/1_12" function="internal">
        <lane id=":1/1_12_0" index="0" speed="13.90" length="16.10" shape="191.95,198.35 196.73,198.35 200.00,198.35 203.27,198.35 208.05,198.35"/>
    </edge>
    <edge id=":1/1_13" function="internal">
        <lane id=":1/1_13_0" index="0" speed="13.90" length="3.13" shape="191.95,198.35 195.05,198.79"/>
    </edge>
    <edge id=":1/1_17" function="internal">
        <lane id=":1/1_17_0" index="0" speed="13.90" length="12.51" shape="195.05,198.79 196.19,198.96 199.22,200.77 201.04,203.81 201.65,208.05"/>
    </edge>
    <edge id=":1/2_0" function="internal">
        <lane id=":1/2_0_0" index="0" speed="13.90" length="5.00" shape="195.05,408.05 194.86,406.69 194.28,405.73 193.31,405.14 191.95,404.95"/>
    </edge>
    <edge id=":1/2_1" function="internal">
        <lane id=":1/2_1_0" index="0" speed="13.90" length="16.10" shape="195.05,408.05 195.05,403.27 195.05,400.00 195.05,396.73 195.05,391.95"/>
    </edge>
    <edge id=":1/2_2" function="internal">
        <lane id=":1/2_2_0" index="0" speed="13.90" length="16.10" shape="198.35,408.05 198.35,403.27 198.35,400.00 198.35,396.73 198.35,391.95"/>
    </edge>
    <edge id=":1/2_3" function="internal">
        <lane id=":1/2_3_0" index="0" speed="13.90" length="6.80" shape="198.35,408.05 198.96,403.81 200.25,401.65"/>
    </edge>
    <edge id=":1/2_14" function="internal">
        <lane id=":1/2_14_0" index="0" speed="13.90" length="8.84" shape="200.25,401.65 200.77,400.77 203.81,398.96 208.05,398.35"/>
    </edge>
    <edge id=":1/2_4" function="internal">
        <lane id=":1/2_4_0" index="0" speed="13.90" length="5.00" shape="208.05,404.95 206.69,405.14 205.73,405.72 205.14,406.69 204.95,408.05"/>
    </edge>
    <edge id=":1/2_5" function="internal">
        <lane id=":1/2_5_0" index="0" speed="13.90" length="16.10" shape="208.05,401.65 203.27,401.65 200.00,401.65 196.73,401.65 191.95,401.65"/>
    </edge>
    <edge id=":1/2_6" function="internal">
        <lane id=":1/2_6_0" index="0" speed="13.90" length="3.13" shape="208.05,401.65 204.95,401.21"/>
    </edge>
    <edge id=":1/2_15" function="internal">
        <lane id=":1/2_15_0" index="0" speed="13.90" length="12.51" shape="204.95,401.21 203.81,401.04 200.78,399.22 198.96,396.19 198.35,391.95"/>
    </edge>
    <edge id=":1/2_7" function="internal">
        <lane id=":1/2_7_0" index="0" speed="13.90" length="5.00" shape="204.95,391.95 205.14,393.31 205.72,394.27 206.69,394.86 208.05,395.05"/>
    </edge>
    <edge id=":1/2_8" function="internal">
        <lane id=":1/2_8_0" index="0" speed="13.90" length="16.10" shape="204.95,391.95 204.95,396.73 204.95,400.00 204.95,403.27 204.95,408.05"/>
    </edge>
    <edge id=":1/2_9" function="internal">
        <lane id=":1/2_9_0" index="0" speed="13.90" length="16.10" shape="201.65,391.95 201.65,396.73 201.65,400.00 201.65,403.27 201.65,408.05"/>
    </edge>
    <edge id=":1/2_10" function="internal">
        <lane id=":1/2_10_0" index="0" speed="13.90" length="6.80" shape="201.65,391.95 201.04,396.19 199.75,398.35"/>
    </edge>
    <edge id=":1/2_16" function="internal">
        <lane id=":1/2_16_0" index="0" speed="13.90" length="8.84" shape="199.75,398.35 199.23,399.23 196.19,401.04 191.95,401.65"/>
    </edge>
    <edge id=":1/2_11" function="internal">
        <lane id=":1/2_11_0" index="0" speed="13.90" length="5.00" shape="191.95,395.05 193.31,394.86 194.27,394.28 194.86,393.31 195.05,391.95"/>
    </edge>
    <edge id=":1/2_12" function="internal">
        <lane id=":1/2_12_0" index="0" speed="13.90" length="16.10" shape="191.95,398.35 196.73,398.35 200.00,398.35 203.27,398.35 208.05,398.35"/>
    </edge>
    <edge id=":1/2_13" function="internal">
        <lane id=":1/2_13_0" index="0" speed="13.90" length="3.13" shape="191.95,398.35 195.05,398.79"/>
    </edge>
    <edge id=":1/2_17" function="internal">
        <lane id=":1/2_17_0" index="0" speed="13.90" length="12.51" shape="195.05,398.79 196.19,398.96 199.22,400.78 201.04,403.81 201.65,408.05"/>
    </edge>
    <edge id=":1/3_0" function="internal">
        <lane id=":1/3_0_0" index="0" speed="13.90" length="5.00" shape="195.05,608.05 194.86,606.69 194.28,605.73 193.31,605.14 191.95,604.95"/>
    </edge>
    <edge id=":1/3_1" function="internal">
        <lane id=":1/3_1_0" index="0" speed="13.90" length="16.10" shape="195.05,608.05 195.05,603.27 195.05,600.00 195.05,596.73 195.05,591.95"/>
    </edge>
    <edge id=":1/3_2" function="internal">
        <lane id=":1/3_2_0" index="0" speed="13.90" length="16.10" shape="198.35,608.05 198.35,603.27 198.35,600.00 198.35,596.73 198.35,591.95"/>
    </edge>
    <edge id=":1/3_3" function="internal">
        <lane id=":1/3_3_0" index="0" speed="13.90" length="6.80" shape="198.35,608.05 198.96,603.81 200.25,601.65"/>
    </edge>
    <edge id=":1/3_14" function="internal">
        <lane id=":1/3_14_0" index="0" speed="13.90" length="8.84" shape="200.25,601.65 200.77,600.77 203.81,598.96 208.05,598.35"/>
    </edge>
    <edge id=":1/3_4" function="internal">
        <lane id=":1/3_4_0" index="0" speed="13.90" length="5.00" shape="208.05,604.95 206.69,605.14 205.73,605.73 205.14,606.69 204.95,608.05"/>
    </edge>
    <edge id=":1/3_5" function="internal">
        <lane id=":1/3_5_0" index="0" speed="13.90" length="16.10" shape="208.05,601.65 203.27,601.65 200.00,601.65 196.73,601.65 191.95,601.65"/>
    </edge>
    <edge id=":1/3_6" function="internal">
        <lane id=":1/3_6_0" index="0" speed="13.90" length="3.13" shape="208.05,601.65 204.95,601.21"/>
    </edge>
    <edge id=":1/3_15" function="internal">
        <lane id=":1/3_15_0" index="0" speed="13.90" length="12.51" shape="204.95,601.21 203.81,601.04 200.78,599.22 198.96,596.19 198.35,591.95"/>
    </edge>
    <edge id=":1/3_7" function="internal">
        <lane id=":1/3_7_0" index="0" speed="13.90" length="5.00" shape="204.95,591.95 205.14,593.31 205.72,594.27 206.69,594.86 208.05,595.05"/>
    </edge>
    <edge id=":1/3_8" function="internal">
        <lane id=":1/3_8_0" index="0" speed="13.90" length="16.10" shape="204.95,591.95 204.95,596.73 204.95,600.00 204.95,603.27 204.95,608.05"/>
    </edge>
    <edge id=":1/3_9" function="internal">
        <lane id=":1/3_9_0" index="0" speed="13.90" length="16.10" shape="201.65,591.95 201.65,596.73 201.65,600.00 201.65,603.27 201.65,608.05"/>
    </edge>
    <edge id=":1/3_10" function="internal">
        <lane id=":1/3_10_0" index="0" speed="13.90" length="6.80" shape="201.65,591.95 201.04,596.19 199.75,598.35"/>
    </edge>
    <edge id=":1/3_16" function="internal">
        <lane id=":1/3_16_0" index="0" speed="13.90" length="8.84" shape="199.75,598.35 199.23,599.23 196.19,601.04 191.95,601.65"/>
    </edge>
    <edge id=":1/3_11" function="internal">
        <lane id=":1/3_11_0" index="0" speed="13.90" length="5.00" shape="191.95,595.05 193.31,594.86 194.27,594.27 194.86,593.31 195.05,591.95"/>
    </edge>
    <edge id=":1/3_12" function="internal">
        <lane id=":1/3_12_0" index="0" speed="13.90" length="16.10" shape="191.95,598.35 196.73,598.35 200.00,598.35 203.27,598.35 208.05,598.35"/>
    </edge>
    <edge id=":1/3_13" function="internal">
        <lane id=":1/3_13_0" index="0" speed="13.90" length="3.13" shape="191.95,598.35 195.05,598.79"/>
    </edge>
    <edge id=":1/3_17" function="internal">
        <lane id=":1/3_17_0" index="0" speed="13.90" length="12.51" shape="195.05,598.79 196.19,598.96 199.22,600.78 201.04,603.81 201.65,608.05"/>
    </edge>
    <edge id=":1/4_0" function="internal">
        <lane id=":1/4_0_0" index="0" speed="13.90" length="5.00" shape="195.05,808.05 194.86,806.69 194.28,805.73 193.31,805.14 191.95,804.95"/>
    </edge>
    <edge id=":1/4_1" function="internal">
        <lane id=":1/4_1_0" index="0" speed="13.90" length="16.10" shape="195.05,808.05 195.05,803.27 195.05,800.00 195.05,796.73 195.05,791.95"/>
    </edge>
    <edge id=":1/4_2" function="internal">
        <lane id=":1/4_2_0" index="0" speed="13.90" length="16.10" shape="198.35,808.05 198.35,803.27 198.35,800.00 198.35,796.73 198.35,791.95"/>
    </edge>
    <edge id=":1/4_3" function="internal">
        <lane id=":1/4_3_0" index="0" speed="13.90" length="6.80" shape="198.35,808.05 198.96,803.81 200.25,801.65"/>
    </edge>
    <edge id=":1/4_14" function="internal">
        <lane id=":1/4_14_0" index="0" speed="13.90" length="8.84" shape="200.25,801.65 200.77,800.77 203.81,798.96 208.05,798.35"/>
    </edge>
    <edge id=":1/4_4" function="internal">
        <lane id=":1/4_4_0" index="0" speed="13.90" length="5.00" shape="208.05,804.95 206.69,805.14 205.73,805.73 205.14,806.69 204.95,808.05"/>
    </edge>
    <edge id=":1/4_5" function="internal">
        <lane id=":1/4_5_0" index="0" speed="13.90" length="16.10" shape="208.05,801.65 203.27,801.65 200.00,801.65 196.73,801.65 191.95,801.65"/>
    </edge>
    <edge id=":1/4_6" function="internal">
        <lane id=":1/4_6_0" index="0" speed="13.90" length="3.13" shape="208.05,801.65 204.95,801.21"/>
    </edge>
    <edge id=":1/4_15" function="internal">
        <lane id=":1/4_15_0" index="0" speed="13.90" length="12.51" shape="204.95,801.21 203.81,801.04 200.78,799.22 198.96,796.19 198.35,791.95"/>
    </edge>
    <edge id=":1/4_7" function="internal">
        <lane id=":1/4_7_0" index="0" speed="13.90" length="5.00" shape="204.95,791.95 205.14,793.31 205.72,794.27 206.69,794.86 208.05,795.05"/>
    </edge>
    <edge id=":1/4_8" function="internal">
        <lane id=":1/4_8_0" index="0" speed="13.90" length="16.10" shape="204.95,791.95 204.95,796.73 204.95,800.00 204.95,803.27 204.95,808.05"/>
    </edge>
    <edge id=":1/4_9" function="internal">
        <lane id=":1/4_9_0" index="0" speed="13.90" length="16.10" shape="201.65,791.95 201.65,796.73 201.65,800.00 201.65,803.27 201.65,808.05"/>
    </edge>
    <edge id=":1/4_10" function="internal">
        <lane id=":1/4_10_0" index="0" speed="13.90" length="6.80" shape="201.65,791.95 201.04,796.19 199.75,798.35"/>
    </edge>
    <edge id=":1/4_16" function="internal">
        <lane id=":1/4_16_0" index="0" speed="13.90" length="8.84" shape="199.75,798.35 199.23,799.23 196.19,801.04 191.95,801.65"/>
    </edge>
    <edge id=":1/4_11" function="internal">
        <lane id=":1/4_11_0" index="0" speed="13.90" length="5.00" shape="191.95,795.05 193.31,794.86 194.27,794.27 194.86,793.31 195.05,791.95"/>
    </edge>
    <edge id=":1/4_12" function="internal">
        <lane id=":1/4_12_0" index="0" speed="13.90" length="16.10" shape="191.95,798.35 196.73,798.35 200.00,798.35 203.27,798.35 208.05,798.35"/>
    </edge>
    <edge id=":1/4_13" function="internal">
        <lane id=":1/4_13_0" index="0" speed="13.90" length="3.13" shape="191.95,798.35 195.05,798.79"/>
    </edge>
    <edge id=":1/4_17" function="internal">
        <lane id=":1/4_17_0" index="0" speed="13.90" length="12.51" shape="195.05,798.79 196.19,798.96 199.22,800.78 201.04,803.81 201.65,808.05"/>
    </edge>
    <edge id=":1/5_0" function="internal">
        <lane id=":1/5_0_0" index="0" speed="13.90" length="5.00" shape="195.05,1008.05 194.86,1006.69 194.28,1005.73 193.31,1005.14 191.95,1004.95"/>
    </edge>
    <edge id=":1/5_1" function="internal">
        <lane id=":1/5_1_0" index="0" speed="13.90" length="16.10" shape="195.05,1008.05 195.05,1003.27 195.05,1000.00 195.05,996.73 195.05,991.95"/>
    </edge>
    <edge id=":1/5_2" function="internal">
        <lane id=":1/5_2_0" index="0" speed="13.90" length="16.10" shape="198.35,1008.05 198.35,1003.27 198.35,1000.00 198.35,996.73 198.35,991.95"/>
    </edge>
    <edge id=":1/5_3" function="internal">
        <lane id=":1/5_3_0" index="0" speed="13.90" length="6.80" shape="198.35,1008.05 198.96,1003.81 200.25,1001.65"/>
    </edge>
    <edge id=":1/5_14" function="internal">
        <lane id=":1/5_14_0" index="0" speed="13.90" length="8.84" shape="200.25,1001.65 200.77,1000.77 203.81,998.96 208.05,998.35"/>
    </edge>
    <edge id=":1/5_4" function="internal">
        <lane id=":1/5_4_0" index="0" speed="13.90" length="5.00" shape="208.05,1004.95 206.69,1005.14 205.73,1005.73 205.14,1006.69 204.95,1008.05"/>
    </edge>
    <edge id=":1/5_5" function="internal">
        <lane id=":1/5_5_0" index="0" speed="13.90" length="16.10" shape="208.05,1001.65 203.27,1001.65 200.00,1001.65 196.73,1001.65 191.95,1001.65"/>
    </edge>
    <edge id=":1/5_6" function="internal">
        <lane id=":1/5_6_0" index="0" speed="13.90" length="3.13" shape="208.05,1001.65 204.95,1001.21"/>
    </edge>
    <edge id=":1/5_15" function="internal">
        <lane id=":1/5_15_0" index="0" speed="13.90" length="12.51" shape="204.95,1001.21 203.81,1001.04 200.78,999.22 198.96,996.19 198.35,991.95"/>
    </edge>
    <edge id=":1/5_7" function="internal">
        <lane id=":1/5_7_0" index="0" speed="13.90" length="5.00" shape="204.95,991.95 205.14,993.31 205.72,994.27 206.69,994.86 208.05,995.05"/>
    </edge>
    <edge id=":1/5_8" function="internal">
        <lane id=":1/5_8_0" index="0" speed="13.90" length="16.10" shape="204.95,991.95 204.95,996.73 204.95,1000.00 204.95,1003.27 204.95,1008.05"/>
    </edge>
    <edge id=":1/5_9" function="internal">