<routes>
    <vehicle id="aux0" depart="1">
        <route edges="D3toD2 D2toC2 C2toC3 C3toC4" />
    </vehicle>
    <vehicle id="aux1" depart="1">
        <route edges="C2toB2 B2toA2 A2toA3 A3toB3 B3toC3 C3toD3 D3toE3 E3toE4 E4toE5" />
    </vehicle>
    <vehicle id="aux2" depart="1">
        <route edges="B2toB1 B1toA1 A1toA2 A2toA3 A3toB3 B3toC3 C3toC4 C4toB4 B4toB3" />
    </vehicle>
    <vehicle id="aux3" depart="1">
        <route edges="D5toE5 E5toF5 F5toF4 F4toF3 F3toF2 F2toE2" />
    </vehicle>
    <vehicle id="aux4" depart="1">
        <route edges="E4toE5 E5toF5 F5toF4 F4toE4 E4toD4 D4toC4 C4toC5 C5toC6" />
    </vehicle>
    <vehicle id="aux5" depart="2">
        <route edges="D6toE6 E6toF6 F6toF5 F5toF4 F4toE4 E4toD4 D4toC4 C4toB4 B4toB3 B3toB2 B2toA2 A2toA3 A3toA4" />
    </vehicle>
    <vehicle id="aux6" depart="2">
        <route edges="D2toD1 D1toC1 C1toC2 C2toC3 C3toD3 D3toD2 D2toC2" />
    </vehicle>
    <vehicle id="aux7" depart="2">
        <route edges="F2toF1 F1toE1 E1toD1 D1toC1 C1toC2 C2toB2 B2toB1" />
    </vehicle>
    <vehicle id="aux8" depart="2">
        <route edges="F3toF2 F2toE2 E2toD2 D2toC2 C2toB2 B2toB1 B1toA1" />
    </vehicle>
    <vehicle id="aux9" depart="2">
        <route edges="D6toD5 D5toD4 D4toD3 D3toD2 D2toC2 C2toB2" />
    </vehicle>
    <vehicle id="aux10" depart="3">
        <route edges="B6toB5 B5toC5 C5toC6 C6toD6 D6toD5" />
    </vehicle>
    <vehicle id="aux11" depart="3">
        <route edges="C1toC2 C2toC3 C3toC4 C4toB4 B4toA4 A4toA5 A5toB5" />
    </vehicle>
    <vehicle id="aux12" depart="3">
        <route edges="C6toD6 D6toD5 D5toD4 D4toC4 C4toB4 B4toA4 A4toA5 A5toB5" />
    </vehicle>
    <vehicle id="aux13" depart="3">
        <route edges="B3toB2 B2toA2 A2toA3 A3toB3 B3toC3 C3toC4 C4toC5 C5toD5 D5toE5 E5toF5" />
    </vehicle>
    <vehicle id="aux14" depart="3">
        <route edges="F4toE4 E4toD4 D4toC4 C4toC5 C5toC6 C6toD6" />
    </vehicle>
    <vehicle id="aux15" depart="4">
        <route edges="C3toD3 D3toE3 E3toF3 F3toF2 F2toF1 F1toE1 E1toE2" />
    </vehicle>
    <vehicle id="aux17" depart="4">
        <route edges="F4toF3 F3toF2 F2toE2 E2toE3" />
    </vehicle>
    <vehicle id="aux18" depart="4">
        <route edges="D1toC1 C1toC2 C2toC3 C3toC4 C4toC5 C5toD5 D5toE5 E5toF5 F5toF4 F4toF3" />
    </vehicle>
    <vehicle id="aux19" depart="4">
        <route edges="E4toD4 D4toC4 C4toB4 B4toB3 B3toB2 B2toA2 A2toA3" />
    </vehicle>
    <vehicle id="aux16" depart="5">
        <route edges="D6toE6 E6toF6 F6toF5 F5toF4 F4toE4 E4toD4 D4toC4 C4toB4 B4toA4 A4toA5 A5toA6" />
    </vehicle>
    <vehicle id="aux20" depart="5">
        <route edges="C1toB1 B1toA1 A1toA2 A2toA3 A3toB3 B3toC3 C3toD3 D3toE3 E3toE4 E4toD4" />
    </vehicle>
    <vehicle id="aux21" depart="5">
        <route edges="F2toF1 F1toE1 E1toE2 E2toE3 E3toE4 E4toD4 D4toD3 D3toE3" />
    </vehicle>
    <vehicle id="aux22" depart="5">
        <route edges="B1toA1 A1toA2 A2toA3 A3toB3 B3toC3 C3toC4 C4toC5 C5toD5 D5toE5 E5toF5 F5toF4 F4toE4" />
    </vehicle>
    <vehicle id="aux23" depart="5">
        <route edges="A3toB3 B3toC3 C3toC4 C4toC5 C5toD5 D5toE5 E5toF5 F5toF4" />
    </vehicle>
    <vehicle id="aux26" depart="6">
        <route edges="D2toD1 D1toC1 C1toB1 B1toA1 A1toA2" />
    </vehicle>
    <vehicle id="aux27" depart="6">
        <route edges="B3toC3 C3toC4 C4toB4 B4toA4 A4toA5 A5toB5 B5toB4" />
    </vehicle>
    <vehicle id="aux28" depart="6">
        <route edges="B5toB4 B4toB3 B3toC3 C3toD3 D3toD2 D2toC2 C2toB2" />
    </vehicle>
    <vehicle id="aux29" depart="6">
        <route edges="C6toD6 D6toD5 D5toD4 D4toC4 C4toB4 B4toB3 B3toB2 B2toB1 B1toA1" />
    </vehicle>
    <vehicle id="aux24" depart="7">
        <route edges="C3toD3 D3toE3 E3toE4 E4toD4" />
    </vehicle>
    <vehicle id="aux25" depart="7">
        <route edges="E4toD4 D4toC4 C4toC5 C5toC6 C6toD6 D6toE6" />
    </vehicle>
    <vehicle id="aux30" depart="7">
        <route edges="F5toF4 F4toE4 E4toD4 D4toC4 C4toB4 B4toA4 A4toA5 A5toB5" />
    </vehicle>
    <vehicle id="aux31" depart="7">
        <route edges="D1toC1 C1toC2 C2toB2 B2toA2 A2toA3 A3toB3" />
    </vehicle>
    <vehicle id="aux32" depart="7">
        <route edges="E5toF5 F5toF4 F4toE4 E4toD4 D4toC4 C4toB4 B4toB3 B3toC3 C3toC4" />
    </vehicle>
    <vehicle id="aux33" depart="7">
        <route edges="C3toC4 C4toB4 B4toA4 A4toA5 A5toB5 B5toB4" />
    </vehicle>
    <vehicle id="aux34" depart="7">
        <route edges="A2toA3 A3toA4 A4toA5 A5toA6 A6toB6 B6toB5" />
    </vehicle>
    <vehicle id="aux35" depart="8">
        <route edges="E2toE3 E3toE4 E4toD4 D4toD3 D3toD2 D2toD1 D1toC1 C1toB1 B1toA1 A1toA2" />
    </vehicle>
    <vehicle id="aux36" depart="8">
        <route edges="A4toA5 A5toB5 B5toB4 B4toB3 B3toB2" />
    </vehicle>
    <vehicle id="aux37" depart="8">
        <route edges="C1toB1 B1toA1 A1toA2 A2toA3 A3toB3 B3toC3 C3toC4 C4toC5 C5toD5" />
    </vehicle>
    <vehicle id="aux38" depart="8">
        <route edges="B2toB1 B1toA1 A1toA2 A2toA3 A3toB3 B3toC3 C3toC4 C4toC5 C5toD5 D5toE5 E5toE6 E6toF6 F6toF5" />
    </vehicle>
    <vehicle id="aux39" depart="8">
        <route edges="B3toB2 B2toA2 A2toA3 A3toA4 A4toA5 A5toA6 A6toB6" />
    </vehicle>
    <vehicle id="aux40" depart="9">
        <route edges="C1toC2 C2toC3 C3toC4 C4toB4 B4toA4" />
    </vehicle>
    <vehicle id="aux41" depart="9">
        <route edges="A3toA4 A4toA5 A5toB5 B5toB4 B4toB3 B3toC3 C3toD3 D3toD2 D2toC2" />
    </vehicle>
    <vehicle id="aux42" depart="9">
        <route edges="B6toC6 C6toD6 D6toD5 D5toD4 D4toC4 C4toB4 B4toB3" />
    </vehicle>
    <vehicle id="aux43" depart="9">
        <route edges="D5toE5 E5toF5 F5toF4 F4toE4 E4toD4 D4toC4 C4toB4 B4toA4 A4toA5 A5toB5 B5toC5" />
    </vehicle>
    <vehicle id="aux44" depart="9">
        <route edges="D4toC4 C4toC5 C5toC6 C6toD6 D6toD5" />
    </vehicle>
    <vehicle id="aux45" depart="10">
        <route edges="D6toE6 E6toF6 F6toF5 F5toF4 F4toF3 F3toF2 F2toF1" />
    </vehicle>
    <vehicle id="aux46" depart="10">
        <route edges="E2toD2 D2toC2 C2toC3 C3toC4 C4toB4 B4toA4 A4toA5 A5toA6" />
    </vehicle>
    <vehicle id="aux47" depart="10">
        <route edges="F4toF3 F3toF2 F2toE2 E2toE3 E3toE4 E4toD4 D4toC4 C4toC5 C5toD5" />
    </vehicle>
    <vehicle id="aux49" depart="10">
        <route edges="F5toF4 F4toE4 E4toD4 D4toC4 C4toC5 C5toC6" />
    </vehicle>
    <vehicle id="aux50" depart="11">
        <route edges="A1toA2 A2toA3 A3toB3 B3toC3 C3toD3 D3toD2 D2toD1 D1toC1 C1toC2" />
    </vehicle>
    <vehicle id="aux52" depart="11">
        <route edges="B3toC3 C3toC4 C4toB4 B4toB3 B3toB2 B2toA2 A2toA3 A3toA4" />
    </vehicle>
    <vehicle id="aux53" depart="11">
        <route edges="C2toB2 B2toA2 A2toA3 A3toB3 B3toC3 C3toC4" />
    </vehicle>
    <vehicle id="aux54" depart="11">
        <route edges="D3toD2 D2toC2 C2toC3 C3toD3 D3toE3 E3toE4 E4toE5 E5toE6" />
    </vehicle>
    <vehicle id="aux48" depart="12">
        <route edges="C1toC2 C2toC3 C3toD3 D3toD2 D2toC2" />
    </vehicle>
    <vehicle id="aux51" depart="12">
        <route edges="D5toE5 E5toF5 F5toF4 F4toE4 E4toD4 D4toD3 D3toD2 D2toC2 C2toC3" />
    </vehicle>
    <vehicle id="aux55" depart="12">
        <route edges="B5toB4 B4toA4 A4toA5" />
    </vehicle>
    <vehicle id="aux56" depart="12">
        <route edges="D2toC2 C2toC3 C3toC4 C4toB4 B4toA4 A4toA5 A5toA6 A6toB6 B6toC6" />
    </vehicle>
    <vehicle id="aux57" depart="12">
        <route edges="C5toD5 D5toD4 D4toC4 C4toB4 B4toA4 A4toA5 A5toB5 B5toC5" />
    </vehicle>
    <vehicle id="aux59" depart="12">
        <route edges="B6toC6 C6toD6 D6toD5 D5toD4 D4toC4 C4toB4 B4toA4 A4toA5 A5toA6 A6toB6" />
    </vehicle>
    <vehicle id="aux60" depart="13">
        <route edges="D2toD1 D1toC1 C1toC2 C2toC3 C3toD3 D3toE3 E3toF3 F3toF2 F2toF1" />
    </vehicle>
    <vehicle id="aux61" depart="13">
        <route edges="A6toB6 B6toB5 B5toB4 B4toB3 B3toC3 C3toD3 D3toD2" />
    </vehicle>
    <vehicle id="aux63" depart="13">
        <route edges="B2toA2 A2toA3 A3toA4 A4toA5 A5toB5 B5toB4" />
    </vehicle>
    <vehicle id="aux64" depart="13">
        <route edges="D3toE3 E3toF3 F3toF2 F2toE2 E2toD2" />
    </vehicle>
    <vehicle id="aux65" depart="14">
        <route edges="E5toF5 F5toF4 F4toE4 E4toD4 D4toD3 D3toD2 D2toC2" />
    </vehicle>
    <vehicle id="aux66" depart="14">
        <route edges="C3toD3 D3toE3 E3toE4 E4toD4 D4toC4 C4toC5 C5toC6 C6toD6 D6toD5" />
    </vehicle>
    <vehicle id="aux67" depart="14">
        <route edges="A1toA2 A2toA3 A3toB3 B3toC3 C3toC4 C4toC5 C5toC6" />
    </vehicle>
    <vehicle id="aux68" depart="14">
        <route edges="C2toC3 C3toD3 D3toE3 E3toE4 E4toE5" />
    </vehicle>
    <vehicle id="aux69" depart="14">
        <route edges="E6toF6 F6toF5 F5toF4 F4toE4 E4toD4 D4toC4 C4toB4 B4toA4 A4toA5 A5toA6 A6toB6" />
    </vehicle>
    <vehicle id="aux58" depart="15">
        <route edges="C5toD5 D5toD4 D4toD3 D3toE3" />
    </vehicle>
    <vehicle id="aux62" depart="15">
        <route edges="B6toC6 C6toD6 D6toD5 D5toD4 D4toC4 C4toB4 B4toB3 B3toB2" />
    </vehicle>
    <vehicle id="aux70" depart="15">
        <route edges="B2toB1 B1toA1 A1toA2 A2toA3 A3toA4 A4toA5 A5toB5 B5toB4" />
    </vehicle>
    <vehicle id="aux71" depart="15">
        <route edges="A2toA3 A3toB3 B3toC3 C3toC4 C4toC5 C5toD5 D5toE5 E5toE6 E6toF6" />
    </vehicle>
    <vehicle id="aux72" depart="15">
        <route edges="B3toC3 C3toC4 C4toB4 B4toB3 B3toB2 B2toB1 B1toA1" />
    </vehicle>
    <vehicle id="aux73" depart="15">
        <route edges="B6toB5 B5toC5 C5toD5 D5toD4" />
    </vehicle>
    <vehicle id="aux74" depart="16">
        <route edges="D3toE3 E3toE4 E4toD4 D4toD3 D3toD2 D2toD1" />
    </vehicle>
    <vehicle id="aux76" depart="16">
        <route edges="F4toE4 E4toD4 D4toD3 D3toE3 E3toF3 F3toF2 F2toE2 E2toD2" />
    </vehicle>
    <vehicle id="aux77" depart="16">
        <route edges="E4toD4 D4toD3 D3toE3 E3toF3 F3toF2 F2toF1 F1toE1 E1toE2" />
    </vehicle>
    <vehicle id="aux79" depart="16">
        <route edges="E1toE2 E2toD2 D2toD1 D1toC1" />
    </vehicle>
    <vehicle id="aux75" depart="17">
        <route edges="A1toA2 A2toA3 A3toB3 B3toC3 C3toD3 D3toE3 E3toF3 F3toF2 F2toF1 F1toE1 E1toD1" />
    </vehicle>
    <vehicle id="aux78" depart="17">
        <route edges="C3toD3 D3toE3 E3toE4 E4toD4 D4toC4 C4toB4 B4toA4 A4toA5 A5toB5 B5toB4" />
    </vehicle>
    <vehicle id="aux80" depart="17">
        <route edges="D6toE6 E6toF6 F6toF5 F5toF4 F4toE4 E4toD4 D4toD3 D3toE3 E3toE4" />
    </vehicle>
    <vehicle id="aux83" depart="17">
        <route edges="E2toE3 E3toE4 E4toD4 D4toC4 C4toB4 B4toA4 A4toA5 A5toA6 A6toB6 B6toB5" />
    </vehicle>
    <vehicle id="aux84" depart="17">
        <route edges="D2toC2 C2toB2" />
    </vehicle>
    <vehicle id="aux85" depart="18">
        <route edges="F6toF5 F5toF4" />
    </vehicle>
    <vehicle id="aux86" depart="18">
        <route edges="B1toA1 A1toA2 A2toA3 A3toB3 B3toC3 C3toD3 D3toE3 E3toE4" />
    </vehicle>
    <vehicle id="aux88" depart="18">
        <route edges="A3toA4" />
    </vehicle>
    <vehicle id="aux89" depart="18">
        <route edges="E6toF6 F6toF5 F5toF4 F4toE4 E4toD4 D4toD3 D3toD2 D2toC2 C2toB2" />
    </vehicle>
    <vehicle id="aux82" depart="19">
        <route edges="D3toE3 E3toE4 E4toD4 D4toC4 C4toB4 B4toA4 A4toA5 A5toA6 A6toB6" />
    </vehicle>
    <vehicle id="aux87" depart="19">
        <route edges="E4toD4 D4toC4 C4toB4 B4toA4 A4toA5 A5toA6 A6toB6 B6toB5" />
    </vehicle>
    <vehicle id="aux90" depart="19">
        <route edges="E1toE2 E2toE3 E3toF3 F3toF2 F2toE2" />
    </vehicle>
    <vehicle id="aux91" depart="19">
        <route edges="C4toB4 B4toB3 B3toC3 C3toD3 D3toD2" />
    </vehicle>
    <vehicle id="aux93" depart="19">
        <route edges="B3toC3 C3toD3 D3toE3 E3toF3 F3toF2 F2toF1 F1toE1" />
    </vehicle>
    <vehicle id="aux81" depart="20">
        <route edges="C3toD3 D3toE3 E3toE4 E4toE5 E5toF5 F5toF4" />
    </vehicle>
    <vehicle id="aux95" depart="20">
        <route edges="B5toB4 B4toB3 B3toC3 C3toD3 D3toE3" />
    </vehicle>
    <vehicle id="aux97" depart="20">
        <route edges="A4toA5 A5toB5 B5toC5 C5toD5" />
    </vehicle>
    <vehicle id="aux98" depart="20">
        <route edges="A3toB3 B3toC3 C3toD3 D3toE3 E3toF3 F3toF2 F2toF1" />
    </vehicle>
    <vehicle id="aux99" depart="20">
        <route edges="A2toA3 A3toB3 B3toC3 C3toD3 D3toE3 E3toF3 F3toF2" />
    </vehicle>
    <vehicle id="aux100" depart="21">
        <route edges="C4toC5 C5toD5 D5toD4 D4toD3 D3toD2 D2toD1 D1toC1 C1toB1 B1toA1 A1toA2" />
    </vehicle>
    <vehicle id="aux104" depart="21">
        <route edges="D1toC1 C1toC2 C2toB2" />
    </vehicle>
    <vehicle id="aux92" depart="21">
        <route edges="E6toF6 F6toF5 F5toF4 F4toE4 E4toD4 D4toC4 C4toB4 B4toB3 B3toB2 B2toB1 B1toA1 A1toA2" />
    </vehicle>
    <vehicle id="aux96" depart="21">
        <route edges="B1toA1 A1toA2 A2toA3 A3toB3 B3toC3 C3toD3 D3toE3 E3toF3" />
    </vehicle>
    <vehicle id="aux103" depart="22">
        <route edges="E4toD4 D4toC4" />
    </vehicle>
    <vehicle id="aux106" depart="22">
        <route edges="D2toC2 C2toC3 C3toD3 D3toE3 E3toE4 E4toD4 D4toD3" />
    </vehicle>
    <vehicle id="aux107" depart="22">
        <route edges="D4toC4 C4toC5 C5toC6" />
    </vehicle>
    <vehicle id="aux94" depart="22">
        <route edges="B3toC3 C3toD3 D3toE3 E3toF3" />
    </vehicle>
    <vehicle id="aux102" depart="23">
        <route edges="A3toB3 B3toC3 C3toC4 C4toB4 B4toA4" />
    </vehicle>
    <vehicle id="aux110" depart="23">
        <route edges="F2toF1" />
    </vehicle>
    <vehicle id="aux111" depart="23">
        <route edges="C6toD6 D6toD5 D5toD4 D4toC4 C4toB4 B4toB3 B3toB2 B2toB1 B1toA1" />
    </vehicle>
    <vehicle id="aux112" depart="23">
        <route edges="D3toD2 D2toC2 C2toC3" />
    </vehicle>
    <vehicle id="aux113" depart="23">
        <route edges="B6toC6 C6toD6 D6toD5 D5toE5" />
    </vehicle>
    <vehicle id="aux114" depart="23">
        <route edges="A3toA4 A4toA5 A5toB5 B5toC5" />
    </vehicle>
    <vehicle id="aux101" depart="24">
        <route edges="C4toC5 C5toD5 D5toE5 E5toF5 F5toF4 F4toE4" />
    </vehicle>
    <vehicle id="aux115" depart="24">
        <route edges="A5toA6 A6toB6 B6toB5 B5toB4 B4toB3" />
    </vehicle>
    <vehicle id="aux116" depart="24">
        <route edges="D5toD4 D4toC4 C4toB4 B4toB3 B3toB2 B2toB1" />
    </vehicle>
    <vehicle id="aux117" depart="24">
        <route edges="D3toE3 E3toE4 E4toD4 D4toC4 C4toB4 B4toA4 A4toA5 A5toB5 B5toC5" />
    </vehicle>
    <vehicle id="aux118" depart="24">
        <route edges="A2toA3 A3toB3 B3toC3 C3toD3 D3toE3 E3toE4" />
    </vehicle>
    <vehicle id="aux121" depart="25">
        <route edges="C4toB4 B4toB3 B3toC3 C3toD3 D3toD2 D2toD1 D1toC1" />
    </vehicle>
    <vehicle id="aux123" depart="25">
        <route edges="F4toE4 E4toD4 D4toC4 C4toB4 B4toB3 B3toB2 B2toB1 B1toA1" />
    </vehicle>
    <vehicle id="aux124" depart="25">
        <route edges="A1toA2 A2toA3 A3toB3 B3toC3 C3toD3 D3toE3 E3toF3 F3toF2 F2toF1" />
    </vehicle>
    <vehicle id="aux108" depart="26">
        <route edges="A3toB3 B3toC3 C3toD3 D3toE3 E3toF3 F3toF2 F2toE2" />
    </vehicle>
    <vehicle id="aux125" depart="26">
        <route edges="E4toE5 E5toF5 F5toF4 F4toE4 E4toD4 D4toD3 D3toD2 D2toC2 C2toB2 B2toA2" />
    </vehicle>
    <vehicle id="aux127" depart="26">
        <route edges="E1toD1 D1toC1 C1toC2 C2toC3 C3toD3 D3toE3 E3toF3 F3toF2 F2toF1 F1toE1 E1toE2" />
    </vehicle>
    <vehicle id="aux128" depart="26">
        <route edges="B4toB3 B3toC3 C3toC4 C4toC5 C5toD5 D5toE5 E5toE6 E6toF6" />
    </vehicle>
    <vehicle id="aux119" depart="27">
        <route edges="E6toF6 F6toF5 F5toF4 F4toE4 E4toD4 D4toC4 C4toB4 B4toA4 A4toA5 A5toA6 A6toB6 B6toB5" />
    </vehicle>
    <vehicle id="aux129" depart="27">
        <route edges="D1toC1 C1toC2 C2toB2 B2toA2" />
    </vehicle>
    <vehicle id="aux131" depart="27">
        <route edges="A3toA4 A4toA5 A5toB5 B5toB4 B4toB3 B3toB2 B2toA2 A2toA3" />
    </vehicle>
    <vehicle id="aux133" depart="27">
        <route edges="C6toD6 D6toD5 D5toD4 D4toD3 D3toD2 D2toD1 D1toC1 C1toC2" />
    </vehicle>
    <vehicle id="aux136" depart="28">
        <route edges="F4toE4 E4toD4 D4toC4 C4toB4 B4toB3 B3toB2 B2toB1" />
    </vehicle>
    <vehicle id="aux139" depart="28">
        <route edges="D5toE5 E5toF5 F5toF4 F4toE4 E4toD4 D4toC4 C4toB4 B4toA4 A4toA5 A5toA6 A6toB6 B6toC6" />
    </vehicle>
    <vehicle id="aux120" depart="29">
        <route edges="C2toB2 B2toA2 A2toA3 A3toB3 B3toC3 C3toD3 D3toE3 E3toF3 F3toF2 F2toF1 F1toE1" />
    </vehicle>
    <vehicle id="aux138" depart="29">
        <route edges="C2toC3 C3toC4 C4toC5 C5toC6 C6toD6 D6toE6" />
    </vehicle>
    <vehicle id="aux140" depart="29">
        <route edges="B5toB4 B4toB3 B3toC3 C3toD3 D3toE3 E3toE4 E4toD4 D4toC4" />
    </vehicle>
    <vehicle id="aux141" depart="29">
        <route edges="A5toA6 A6toB6 B6toB5 B5toB4 B4toB3 B3toC3 C3toC4" />
    </vehicle>
    <vehicle id="aux142" depart="29">
        <route edges="B5toC5 C5toD5 D5toE5" />
    </vehicle>
    <vehicle id="aux143" depart="29">
        <route edges="A6toB6 B6toC6" />
    </vehicle>
    <vehicle id="aux149" depart="30">
        <route edges="D4toC4 C4toB4 B4toB3 B3toC3 C3toD3 D3toE3 E3toF3 F3toF2 F2toE2" />
    </vehicle>
    <vehicle id="aux154" depart="31">
        <route edges="C5toC6 C6toD6 D6toD5" />
    </vehicle>
    <vehicle id="aux109" depart="32">
        <route edges="A3toB3 B3toC3 C3toD3 D3toD2" />
    </vehicle>
    <vehicle id="aux122" depart="32">
        <route edges="F1toE1 E1toE2 E2toE3 E3toE4 E4toD4 D4toC4 C4toB4 B4toA4 A4toA5 A5toB5" />
    </vehicle>
    <vehicle id="aux132" depart="32">
        <route edges="C2toB2 B2toA2 A2toA3 A3toB3 B3toC3 C3toC4 C4toC5 C5toD5 D5toE5 E5toF5 F5toF4 F4toE4" />
    </vehicle>
    <vehicle id="aux145" depart="32">
        <route edges="A1toA2 A2toA3 A3toB3 B3toB2 B2toB1" />
    </vehicle>
    <vehicle id="aux148" depart="32">
        <route edges="C2toC3 C3toD3 D3toE3 E3toE4" />
    </vehicle>
    <vehicle id="aux158" depart="32">
        <route edges="E2toE3 E3toE4 E4toD4 D4toC4 C4toB4 B4toA4 A4toA5 A5toA6 A6toB6 B6toB5" />
    </vehicle>
    <vehicle id="aux130" depart="33">
        <route edges="C1toB1 B1toA1 A1toA2 A2toA3 A3toB3 B3toC3 C3toD3 D3toE3 E3toE4 E4toE5" />
    </vehicle>
    <vehicle id="aux134" depart="33">
        <route edges="B4toB3 B3toC3 C3toD3 D3toE3 E3toF3" />
    </vehicle>
    <vehicle id="aux135" depart="33">
        <route edges="C3toC4 C4toC5 C5toD5" />
    </vehicle>
    <vehicle id="aux146" depart="33">
        <route edges="A5toA6 A6toB6 B6toC6 C6toD6" />
    </vehicle>
    <vehicle id="aux160" depart="33">
        <route edges="B4toA4 A4toA5" />
    </vehicle>
    <vehicle id="aux164" depart="33">
        <route edges="D4toC4" />
    </vehicle>
    <vehicle id="aux137" depart="34">
        <route edges="D1toC1 C1toC2 C2toC3 C3toC4 C4toC5 C5toD5 D5toE5 E5toF5 F5toF4" />
    </vehicle>
    <vehicle id="aux162" depart="34">
        <route edges="C5toC6 C6toD6 D6toD5 D5toD4 D4toC4 C4toB4" />
    </vehicle>
    <vehicle id="aux165" depart="34">
        <route edges="C1toC2 C2toC3 C3toC4 C4toC5 C5toD5 D5toE5 E5toF5 F5toF4" />
    </vehicle>
    <vehicle id="aux167" depart="34">
        <route edges="E4toD4 D4toC4 C4toB4 B4toB3 B3toB2 B2toB1" />
    </vehicle>
    <vehicle id="aux105" depart="35">
        <route edges="B1toA1 A1toA2 A2toA3 A3toB3 B3toC3 C3toD3 D3toE3 E3toF3 F3toF2 F2toE2" />
    </vehicle>
    <vehicle id="aux126" depart="35">
        <route edges="B2toA2 A2toA3 A3toA4 A4toA5 A5toA6 A6toB6 B6toB5" />
    </vehicle>
    <vehicle id="aux144" depart="35">
        <route edges="C4toB4 B4toB3 B3toC3 C3toD3 D3toE3 E3toE4 E4toD4 D4toD3" />
    </vehicle>
    <vehicle id="aux147" depart="35">
        <route edges="F4toF3 F3toF2 F2toE2 E2toE3 E3toE4 E4toD4 D4toC4 C4toB4 B4toB3 B3toC3" />
    </vehicle>
    <vehicle id="aux163" depart="35">
        <route edges="A3toB3 B3toC3 C3toD3 D3toD2 D2toC2" />
    </vehicle>
    <vehicle id="aux169" depart="35">
        <route edges="A1toA2 A2toA3 A3toA4 A4toA5 A5toA6 A6toB6" />
    </vehicle>
    <vehicle id="aux172" depart="35">
        <route edges="F3toF2 F2toE2 E2toE3 E3toE4 E4toD4 D4toC4" />
    </vehicle>
    <vehicle id="aux153" depart="36">
        <route edges="F4toE4 E4toD4 D4toC4 C4toB4 B4toB3 B3toB2 B2toA2 A2toA3 A3toA4" />
    </vehicle>
    <vehicle id="aux156" depart="36">
        <route edges="A5toA6 A6toB6 B6toB5 B5toB4 B4toB3 B3toC3 C3toD3 D3toE3 E3toF3" />
    </vehicle>
    <vehicle id="aux166" depart="36">
        <route edges="C1toB1 B1toA1 A1toA2 A2toA3 A3toB3 B3toC3 C3toD3 D3toD2" />
    </vehicle>
    <vehicle id="aux175" depart="36">
        <route edges="C4toC5 C5toC6 C6toD6 D6toD5" />
    </vehicle>
    <vehicle id="aux177" depart="36">
        <route edges="B5toB4 B4toB3 B3toC3 C3toD3 D3toE3 E3toE4" />
    </vehicle>
    <vehicle id="aux178" depart="36">
        <route edges="E5toE6 E6toF6 F6toF5 F5toF4 F4toE4 E4toD4 D4toC4 C4toB4 B4toB3 B3toB2 B2toA2 A2toA3 A3toA4" />
    </vehicle>
    <vehicle id="aux179" depart="36">
        <route edges="A5toB5 B5toB4 B4toB3 B3toC3 C3toD3 D3toE3 E3toF3 F3toF2 F2toF1 F1toE1" />
    </vehicle>
    <vehicle id="aux168" depart="37">
        <route edges="C1toC2 C2toC3 C3toD3 D3toE3 E3toF3 F3toF2 F2toF1 F1toE1 E1toD1" />
    </vehicle>
    <vehicle id="aux170" depart="37">
        <route edges="C5toC6 C6toD6 D6toD5 D5toD4 D4toD3 D3toD2 D2toD1 D1toC1 C1toB1" />
    </vehicle>
    <vehicle id="aux181" depart="37">
        <route edges="E4toE5 E5toF5 F5toF4 F4toE4 E4toD4 D4toD3 D3toD2 D2toC2 C2toB2 B2toA2 A2toA3 A3toA4" />
    </vehicle>
    <vehicle id="aux150" depart="38">
        <route edges="D2toC2 C2toC3 C3toD3 D3toD2 D2toD1 D1toC1 C1toC2" />
    </vehicle>
    <vehicle id="aux151" depart="38">
        <route edges="B4toB3" />
    </vehicle>
    <vehicle id="aux152" depart="38">
        <route edges="C4toB4 B4toB3 B3toB2 B2toA2 A2toA3 A3toA4" />
    </vehicle>
    <vehicle id="aux157" depart="38">
        <route edges="F4toF3 F3toF2 F2toE2 E2toD2 D2toC2 C2toB2 B2toA2" />
    </vehicle>
    <vehicle id="aux187" depart="38">
        <route edges="B3toC3 C3toC4 C4toB4 B4toB3 B3toB2 B2toA2 A2toA3 A3toA4" />
    </vehicle>
    <vehicle id="aux188" depart="38">
        <route edges="D6toD5 D5toD4 D4toC4 C4toB4 B4toA4 A4toA5 A5toB5" />
    </vehicle>
    <vehicle id="aux159" depart="39">
        <route edges="A5toA6 A6toB6 B6toB5 B5toB4 B4toB3 B3toC3 C3toC4 C4toB4" />
    </vehicle>
    <vehicle id="aux161" depart="39">
        <route edges="B4toA4 A4toA5 A5toB5 B5toB4 B4toB3" />
    </vehicle>
    <vehicle id="aux173" depart="39">
        <route edges="C2toC3 C3toC4 C4toB4 B4toB3 B3toB2 B2toA2 A2toA3 A3toB3" />
    </vehicle>
    <vehicle id="aux180" depart="39">
        <route edges="B6toC6" />
    </vehicle>
    <vehicle id="aux182" depart="39">
        <route edges="E5toE6 E6toF6 F6toF5 F5toF4 F4toF3 F3toF2" />
    </vehicle>
    <vehicle id="aux183" depart="39">
        <route edges="B5toB4 B4toB3 B3toC3 C3toD3" />
    </vehicle>
    <vehicle id="aux191" depart="39">
        <route edges="A1toA2 A2toA3 A3toB3 B3toC3 C3toD3 D3toE3 E3toF3 F3toF2 F2toF1 F1toE1 E1toD1" />
    </vehicle>
    <vehicle id="aux192" depart="39">
        <route edges="D2toD1 D1toC1 C1toC2 C2toB2 B2toA2 A2toA3 A3toA4" />
    </vehicle>
    <vehicle id="aux194" depart="39">
        <route edges="C2toB2 B2toA2 A2toA3 A3toA4" />
    </vehicle>
    <vehicle id="aux174" depart="40">
        <route edges="C1toC2 C2toC3 C3toC4 C4toC5 C5toD5 D5toE5 E5toF5 F5toF4 F4toF3" />
    </vehicle>
    <vehicle id="aux185" depart="40">
        <route edges="E4toE5 E5toF5 F5toF4 F4toE4 E4toD4 D4toD3" />
    </vehicle>
    <vehicle id="aux196" depart="40">
        <route edges="A5toB5 B5toB4 B4toB3 B3toC3 C3toD3 D3toE3 E3toF3 F3toF2 F2toE2 E2toD2" />
    </vehicle>
    <vehicle id="aux190" depart="41">
        <route edges="B3toC3 C3toD3 D3toE3 E3toF3" />
    </vehicle>
    <vehicle id="aux193" depart="41">
        <route edges="D6toD5 D5toE5 E5toF5 F5toF4 F4toF3" />
    </vehicle>
    <vehicle id="aux200" depart="41">
        <route edges="E2toE3 E3toE4" />
    </vehicle>
    <vehicle id="aux201" depart="41">
        <route edges="F4toE4 E4toE5" />
    </vehicle>
    <vehicle id="aux203" depart="41">
        <route edges="E5toF5 F5toF4 F4toE4 E4toE5" />
    </vehicle>
    <vehicle id="aux204" depart="41">
        <route edges="D4toD3 D3toD2" />
    </vehicle>
    <vehicle id="aux171" depart="42">
        <route edges="D5toD4 D4toD3 D3toE3 E3toE4 E4toE5 E5toF5" />
    </vehicle>
    <vehicle id="aux186" depart="42">
        <route edges="B6toC6 C6toD6 D6toD5 D5toD4 D4toC4 C4toB4 B4toA4 A4toA5 A5toA6 A6toB6 B6toB5" />
    </vehicle>
    <vehicle id="aux189" depart="42">
        <route edges="E5toE6 E6toF6 F6toF5 F5toF4 F4toE4 E4toD4 D4toC4 C4toC5 C5toD5" />
    </vehicle>
    <vehicle id="aux197" depart="42">
        <route edges="A3toB3 B3toC3 C3toC4 C4toC5 C5toD5 D5toE5 E5toF5 F5toF4 F4toF3" />
    </vehicle>
    <vehicle id="aux206" depart="42">
        <route edges="F2toE2 E2toE3 E3toE4 E4toD4 D4toC4 C4toB4 B4toB3" />
    </vehicle>
    <vehicle id="aux207" depart="42">
        <route edges="C1toB1 B1toA1 A1toA2 A2toA3 A3toB3 B3toC3 C3toC4" />
    </vehicle>
    <vehicle id="aux208" depart="42">
        <route edges="D2toC2 C2toC3 C3toC4 C4toC5 C5toD5" />
    </vehicle>
    <vehicle id="aux176" depart="43">
        <route edges="C2toC3 C3toD3 D3toE3 E3toF3 F3toF2 F2toE2 E2toE3" />
    </vehicle>
    <vehicle id="aux211" depart="43">
        <route edges="B5toC5 C5toD5 D5toD4 D4toC4 C4toB4 B4toA4 A4toA5" />
    </vehicle>
    <vehicle id="aux199" depart="44">
        <route edges="E6toF6 F6toF5 F5toF4 F4toE4 E4toD4 D4toC4 C4toC5 C5toC6" />
    </vehicle>
    <vehicle id="aux210" depart="44">
        <route edges="F4toE4 E4toD4 D4toC4 C4toB4 B4toB3 B3toB2 B2toA2 A2toA3 A3toB3" />
    </vehicle>
    <vehicle id="aux212" depart="44">
        <route edges="D6toD5 D5toD4 D4toD3 D3toE3" />
    </vehicle>
    <vehicle id="aux215" depart="44">
        <route edges="E5toF5 F5toF4 F4toE4 E4toE5" />
    </vehicle>
    <vehicle id="aux217" depart="44">
        <route edges="B1toA1 A1toA2 A2toA3 A3toB3 B3toC3 C3toC4 C4toB4" />
    </vehicle>
    <vehicle id="aux219" depart="44">
        <route edges="E1toD1 D1toC1 C1toC2 C2toC3 C3toD3 D3toE3 E3toF3 F3toF2 F2toE2 E2toD2" />
    </vehicle>
    <vehicle id="aux184" depart="45">
        <route edges="B4toA4 A4toA5 A5toA6" />
    </vehicle>
    <vehicle id="aux202" depart="45">
        <route edges="E5toE6 E6toF6 F6toF5 F5toF4 F4toE4 E4toD4 D4toC4 C4toB4 B4toB3 B3toC3 C3toC4" />
    </vehicle>
    <vehicle id="aux214" depart="45">
        <route edges="B6toC6 C6toD6 D6toD5 D5toD4 D4toC4 C4toB4 B4toB3 B3toC3 C3toC4" />
    </vehicle>
    <vehicle id="aux218" depart="45">
        <route edges="D5toD4 D4toC4 C4toB4 B4toB3 B3toB2 B2toB1 B1toA1 A1toA2" />
    </vehicle>
    <vehicle id="aux220" depart="45">
        <route edges="B6toB5 B5toB4 B4toB3 B3toC3 C3toD3 D3toD2 D2toD1 D1toC1 C1toC2" />
    </vehicle>
    <vehicle id="aux222" depart="45">
        <route edges="F4toF3 F3toF2 F2toE2 E2toE3 E3toE4 E4toD4 D4toC4 C4toC5" />
    </vehicle>
    <vehicle id="aux221" depart="46">
        <route edges="B5toC5 C5toD5 D5toD4 D4toC4 C4toB4 B4toA4 A4toA5 A5toA6 A6toB6 B6toB5" />
    </vehicle>
    <vehicle id="aux228" depart="46">
        <route edges="B5toB4 B4toB3 B3toC3 C3toC4 C4toC5 C5toD5 D5toE5 E5toF5 F5toF4" />
    </vehicle>
    <vehicle id="aux155" depart="47">
        <route edges="B4toB3 B3toC3 C3toC4 C4toB4 B4toA4 A4toA5 A5toB5 B5toB4" />
    </vehicle>
    <vehicle id="aux195" depart="47">
        <route edges="D3toE3 E3toE4 E4toD4 D4toC4 C4toB4 B4toA4 A4toA5 A5toA6 A6toB6 B6toB5" />
    </vehicle>
    <vehicle id="aux205" depart="47">
        <route edges="C1toC2 C2toC3 C3toC4" />
    </vehicle>
    <vehicle id="aux232" depart="47">
        <route edges="B2toB1 B1toA1 A1toA2 A2toA3 A3toA4 A4toA5 A5toA6" />
    </vehicle>
    <vehicle id="aux233" depart="47">
        <route edges="B1toA1 A1toA2 A2toA3 A3toA4 A4toA5 A5toA6 A6toB6" />
    </vehicle>
    <vehicle id="aux225" depart="48">
        <route edges="F4toF3 F3toF2 F2toF1 F1toE1" />
    </vehicle>
    <vehicle id="aux226" depart="48">
        <route edges="D2toD1 D1toC1 C1toC2 C2toC3 C3toC4 C4toC5 C5toC6 C6toD6" />
    </vehicle>
    <vehicle id="aux236" depart="48">
        <route edges="D5toD4 D4toC4 C4toB4 B4toA4" />
    </vehicle>
    <vehicle id="aux198" depart="49">
        <route edges="C2toC3 C3toC4 C4toB4 B4toB3 B3toC3" />
    </vehicle>
    <vehicle id="aux223" depart="49">
        <route edges="C4toC5 C5toD5 D5toD4 D4toD3 D3toE3" />
    </vehicle>
    <vehicle id="aux231" depart="49">
        <route edges="B5toC5 C5toD5 D5toD4 D4toC4 C4toC5" />
    </vehicle>
    <vehicle id="aux241" depart="49">
        <route edges="B6toC6 C6toD6 D6toD5 D5toD4 D4toC4 C4toB4 B4toB3 B3toC3 C3toD3" />
    </vehicle>
    <vehicle id="aux243" depart="49">
        <route edges="B5toB4 B4toB3 B3toC3 C3toD3 D3toE3 E3toF3 F3toF2 F2toF1" />
    </vehicle>
    <vehicle id="aux244" depart="49">
        <route edges="A5toA6 A6toB6 B6toB5 B5toB4 B4toB3 B3toC3 C3toD3 D3toE3 E3toF3 F3toF2" />
    </vehicle>
    <vehicle id="aux209" depart="50">
        <route edges="D3toE3 E3toE4 E4toD4 D4toC4 C4toC5 C5toD5" />
    </vehicle>
    <vehicle id="aux216" depart="50">
        <route edges="D6toD5 D5toD4 D4toD3 D3toE3 E3toF3 F3toF2 F2toE2" />
    </vehicle>
    <vehicle id="aux234" depart="50">
        <route edges="B2toB1 B1toA1 A1toA2 A2toA3 A3toB3 B3toC3 C3toD3 D3toD2 D2toD1 D1toC1 C1toB1" />
    </vehicle>
    <vehicle id="aux235" depart="50">
        <route edges="B1toA1 A1toA2 A2toA3 A3toB3 B3toC3 C3toD3 D3toE3 E3toF3 F3toF2" />
    </vehicle>
    <vehicle id="aux238" depart="50">