<?xml version="1.0"?>
<!-- generated on 2013-03-23 19:06:48.930968 by $Id: route2trips.py 11671 2012-01-07 20:14:30Z behrisch $ -->
<trips>
    <trip depart="1" id="aux0" from="D3toD2" to="C3toC4"/>
    <trip depart="1" id="aux1" from="C2toB2" to="E4toE5"/>
    <trip depart="1" id="aux2" from="B2toB1" to="B4toB3"/>
    <trip depart="1" id="aux3" from="D5toE5" to="F2toE2"/>
    <trip depart="1" id="aux4" from="E4toE5" to="C5toC6"/>
    <trip depart="2" id="aux5" from="D6toE6" to="A3toA4"/>
    <trip depart="2" id="aux6" from="D2toD1" to="D2toC2"/>
    <trip depart="2" id="aux7" from="F2toF1" to="B2toB1"/>
    <trip depart="2" id="aux8" from="F3toF2" to="B1toA1"/>
    <trip depart="2" id="aux9" from="D6toD5" to="C2toB2"/>
    <trip depart="3" id="aux10" from="B6toB5" to="D6toD5"/>
    <trip depart="3" id="aux11" from="C1toC2" to="A5toB5"/>
    <trip depart="3" id="aux12" from="C6toD6" to="A5toB5"/>
    <trip depart="3" id="aux13" from="B3toB2" to="E5toF5"/>
    <trip depart="3" id="aux14" from="F4toE4" to="C6toD6"/>
    <trip depart="4" id="aux15" from="C3toD3" to="E1toE2"/>
    <trip depart="4" id="aux17" from="F4toF3" to="E2toE3"/>
    <trip depart="4" id="aux18" from="D1toC1" to="F4toF3"/>
    <trip depart="4" id="aux19" from="E4toD4" to="A2toA3"/>
    <trip depart="5" id="aux16" from="D6toE6" to="A5toA6"/>
    <trip depart="5" id="aux20" from="C1toB1" to="E4toD4"/>
    <trip depart="5" id="aux21" from="F2toF1" to="D3toE3"/>
    <trip depart="5" id="aux22" from="B1toA1" to="F4toE4"/>
    <trip depart="5" id="aux23" from="A3toB3" to="F5toF4"/>
    <trip depart="6" id="aux26" from="D2toD1" to="A1toA2"/>
    <trip depart="6" id="aux27" from="B3toC3" to="B5toB4"/>
    <trip depart="6" id="aux28" from="B5toB4" to="C2toB2"/>
    <trip depart="6" id="aux29" from="C6toD6" to="B1toA1"/>
    <trip depart="7" id="aux24" from="C3toD3" to="E4toD4"/>
    <trip depart="7" id="aux25" from="E4toD4" to="D6toE6"/>
    <trip depart="7" id="aux30" from="F5toF4" to="A5toB5"/>
    <trip depart="7" id="aux31" from="D1toC1" to="A3toB3"/>
    <trip depart="7" id="aux32" from="E5toF5" to="C3toC4"/>
    <trip depart="7" id="aux33" from="C3toC4" to="B5toB4"/>
    <trip depart="7" id="aux34" from="A2toA3" to="B6toB5"/>
    <trip depart="8" id="aux35" from="E2toE3" to="A1toA2"/>
    <trip depart="8" id="aux36" from="A4toA5" to="B3toB2"/>
    <trip depart="8" id="aux37" from="C1toB1" to="C5toD5"/>
    <trip depart="8" id="aux38" from="B2toB1" to="F6toF5"/>
    <trip depart="8" id="aux39" from="B3toB2" to="A6toB6"/>
    <trip depart="9" id="aux40" from="C1toC2" to="B4toA4"/>
    <trip depart="9" id="aux41" from="A3toA4" to="D2toC2"/>
    <trip depart="9" id="aux42" from="B6toC6" to="B4toB3"/>
    <trip depart="9" id="aux43" from="D5toE5" to="B5toC5"/>
    <trip depart="9" id="aux44" from="D4toC4" to="D6toD5"/>
    <trip depart="10" id="aux45" from="D6toE6" to="F2toF1"/>
    <trip depart="10" id="aux46" from="E2toD2" to="A5toA6"/>
    <trip depart="10" id="aux47" from="F4toF3" to="C5toD5"/>
    <trip depart="10" id="aux49" from="F5toF4" to="C5toC6"/>
    <trip depart="11" id="aux50" from="A1toA2" to="C1toC2"/>
    <trip depart="11" id="aux52" from="B3toC3" to="A3toA4"/>
    <trip depart="11" id="aux53" from="C2toB2" to="C3toC4"/>
    <trip depart="11" id="aux54" from="D3toD2" to="E5toE6"/>
    <trip depart="12" id="aux48" from="C1toC2" to="D2toC2"/>
    <trip depart="12" id="aux51" from="D5toE5" to="C2toC3"/>
    <trip depart="12" id="aux55" from="B5toB4" to="A4toA5"/>
    <trip depart="12" id="aux56" from="D2toC2" to="B6toC6"/>
    <trip depart="12" id="aux57" from="C5toD5" to="B5toC5"/>
    <trip depart="12" id="aux59" from="B6toC6" to="A6toB6"/>
    <trip depart="13" id="aux60" from="D2toD1" to="F2toF1"/>
    <trip depart="13" id="aux61" from="A6toB6" to="D3toD2"/>
    <trip depart="13" id="aux63" from="B2toA2" to="B5toB4"/>
    <trip depart="13" id="aux64" from="D3toE3" to="E2toD2"/>
    <trip depart="14" id="aux65" from="E5toF5" to="D2toC2"/>
    <trip depart="14" id="aux66" from="C3toD3" to="D6toD5"/>
    <trip depart="14" id="aux67" from="A1toA2" to="C5toC6"/>
    <trip depart="14" id="aux68" from="C2toC3" to="E4toE5"/>
    <trip depart="14" id="aux69" from="E6toF6" to="A6toB6"/>
    <trip depart="15" id="aux58" from="C5toD5" to="D3toE3"/>
    <trip depart="15" id="aux62" from="B6toC6" to="B3toB2"/>
    <trip depart="15" id="aux70" from="B2toB1" to="B5toB4"/>
    <trip depart="15" id="aux71" from="A2toA3" to="E6toF6"/>
    <trip depart="15" id="aux72" from="B3toC3" to="B1toA1"/>
    <trip depart="15" id="aux73" from="B6toB5" to="D5toD4"/>
    <trip depart="16" id="aux74" from="D3toE3" to="D2toD1"/>
    <trip depart="16" id="aux76" from="F4toE4" to="E2toD2"/>
    <trip depart="16" id="aux77" from="E4toD4" to="E1toE2"/>
    <trip depart="16" id="aux79" from="E1toE2" to="D1toC1"/>
    <trip depart="17" id="aux75" from="A1toA2" to="E1toD1"/>
    <trip depart="17" id="aux78" from="C3toD3" to="B5toB4"/>
    <trip depart="17" id="aux80" from="D6toE6" to="E3toE4"/>
    <trip depart="17" id="aux83" from="E2toE3" to="B6toB5"/>
    <trip depart="17" id="aux84" from="D2toC2" to="C2toB2"/>
    <trip depart="18" id="aux85" from="F6toF5" to="F5toF4"/>
    <trip depart="18" id="aux86" from="B1toA1" to="E3toE4"/>
    <trip depart="18" id="aux88" from="A3toA4" to="A3toA4"/>
    <trip depart="18" id="aux89" from="E6toF6" to="C2toB2"/>
    <trip depart="19" id="aux82" from="D3toE3" to="A6toB6"/>
    <trip depart="19" id="aux87" from="E4toD4" to="B6toB5"/>
    <trip depart="19" id="aux90" from="E1toE2" to="F2toE2"/>
    <trip depart="19" id="aux91" from="C4toB4" to="D3toD2"/>
    <trip depart="19" id="aux93" from="B3toC3" to="F1toE1"/>
    <trip depart="20" id="aux81" from="C3toD3" to="F5toF4"/>
    <trip depart="20" id="aux95" from="B5toB4" to="D3toE3"/>
    <trip depart="20" id="aux97" from="A4toA5" to="C5toD5"/>
    <trip depart="20" id="aux98" from="A3toB3" to="F2toF1"/>
    <trip depart="20" id="aux99" from="A2toA3" to="F3toF2"/>
    <trip depart="21" id="aux100" from="C4toC5" to="A1toA2"/>
    <trip depart="21" id="aux104" from="D1toC1" to="C2toB2"/>
    <trip depart="21" id="aux92" from="E6toF6" to="A1toA2"/>
    <trip depart="21" id="aux96" from="B1toA1" to="E3toF3"/>
    <trip depart="22" id="aux103" from="E4toD4" to="D4toC4"/>
    <trip depart="22" id="aux106" from="D2toC2" to="D4toD3"/>
    <trip depart="22" id="aux107" from="D4toC4" to="C5toC6"/>
    <trip depart="22" id="aux94" from="B3toC3" to="E3toF3"/>
    <trip depart="23" id="aux102" from="A3toB3" to="B4toA4"/>
    <trip depart="23" id="aux110" from="F2toF1" to="F2toF1"/>
    <trip depart="23" id="aux111" from="C6toD6" to="B1toA1"/>
    <trip depart="23" id="aux112" from="D3toD2" to="C2toC3"/>
    <trip depart="23" id="aux113" from="B6toC6" to="D5toE5"/>
    <trip depart="23" id="aux114" from="A3toA4" to="B5toC5"/>
    <trip depart="24" id="aux101" from="C4toC5" to="F4toE4"/>
    <trip depart="24" id="aux115" from="A5toA6" to="B4toB3"/>
    <trip depart="24" id="aux116" from="D5toD4" to="B2toB1"/>
    <trip depart="24" id="aux117" from="D3toE3" to="B5toC5"/>
    <trip depart="24" id="aux118" from="A2toA3" to="E3toE4"/>
    <trip depart="25" id="aux121" from="C4toB4" to="D1toC1"/>
    <trip depart="25" id="aux123" from="F4toE4" to="B1toA1"/>
    <trip depart="25" id="aux124" from="A1toA2" to="F2toF1"/>
    <trip depart="26" id="aux108" from="A3toB3" to="F2toE2"/>
    <trip depart="26" id="aux125" from="E4toE5" to="B2toA2"/>
    <trip depart="26" id="aux127" from="E1toD1" to="E1toE2"/>
    <trip depart="26" id="aux128" from="B4toB3" to="E6toF6"/>
    <trip depart="27" id="aux119" from="E6toF6" to="B6toB5"/>
    <trip depart="27" id="aux129" from="D1toC1" to="B2toA2"/>
    <trip depart="27" id="aux131" from="A3toA4" to="A2toA3"/>
    <trip depart="27" id="aux133" from="C6toD6" to="C1toC2"/>
    <trip depart="28" id="aux136" from="F4toE4" to="B2toB1"/>
    <trip depart="28" id="aux139" from="D5toE5" to="B6toC6"/>
    <trip depart="29" id="aux120" from="C2toB2" to="F1toE1"/>
    <trip depart="29" id="aux138" from="C2toC3" to="D6toE6"/>
    <trip depart="29" id="aux140" from="B5toB4" to="D4toC4"/>
    <trip depart="29" id="aux141" from="A5toA6" to="C3toC4"/>
    <trip depart="29" id="aux142" from="B5toC5" to="D5toE5"/>
    <trip depart="29" id="aux143" from="A6toB6" to="B6toC6"/>
    <trip depart="30" id="aux149" from="D4toC4" to="F2toE2"/>
    <trip depart="31" id="aux154" from="C5toC6" to="D6toD5"/>
    <trip depart="32" id="aux109" from="A3toB3" to="D3toD2"/>
    <trip depart="32" id="aux122" from="F1toE1" to="A5toB5"/>
    <trip depart="32" id="aux132" from="C2toB2" to="F4toE4"/>
    <trip depart="32" id="aux145" from="A1toA2" to="B2toB1"/>
    <trip depart="32" id="aux148" from="C2toC3" to="E3toE4"/>
    <trip depart="32" id="aux158" from="E2toE3" to="B6toB5"/>
    <trip depart="33" id="aux130" from="C1toB1" to="E4toE5"/>
    <trip depart="33" id="aux134" from="B4toB3" to="E3toF3"/>
    <trip depart="33" id="aux135" from="C3toC4" to="C5toD5"/>
    <trip depart="33" id="aux146" from="A5toA6" to="C6toD6"/>
    <trip depart="33" id="aux160" from="B4toA4" to="A4toA5"/>
    <trip depart="33" id="aux164" from="D4toC4" to="D4toC4"/>
    <trip depart="34" id="aux137" from="D1toC1" to="F5toF4"/>
    <trip depart="34" id="aux162" from="C5toC6" to="C4toB4"/>
    <trip depart="34" id="aux165" from="C1toC2" to="F5toF4"/>
    <trip depart="34" id="aux167" from="E4toD4" to="B2toB1"/>
    <trip depart="35" id="aux105" from="B1toA1" to="F2toE2"/>
    <trip depart="35" id="aux126" from="B2toA2" to="B6toB5"/>
    <trip depart="35" id="aux144" from="C4toB4" to="D4toD3"/>
    <trip depart="35" id="aux147" from="F4toF3" to="B3toC3"/>
    <trip depart="35" id="aux163" from="A3toB3" to="D2toC2"/>
    <trip depart="35" id="aux169" from="A1toA2" to="A6toB6"/>
    <trip depart="35" id="aux172" from="F3toF2" to="D4toC4"/>
    <trip depart="36" id="aux153" from="F4toE4" to="A3toA4"/>
    <trip depart="36" id="aux156" from="A5toA6" to="E3toF3"/>
    <trip depart="36" id="aux166" from="C1toB1" to="D3toD2"/>
    <trip depart="36" id="aux175" from="C4toC5" to="D6toD5"/>
    <trip depart="36" id="aux177" from="B5toB4" to="E3toE4"/>
    <trip depart="36" id="aux178" from="E5toE6" to="A3toA4"/>
    <trip depart="36" id="aux179" from="A5toB5" to="F1toE1"/>
    <trip depart="37" id="aux168" from="C1toC2" to="E1toD1"/>
    <trip depart="37" id="aux170" from="C5toC6" to="C1toB1"/>
    <trip depart="37" id="aux181" from="E4toE5" to="A3toA4"/>
    <trip depart="38" id="aux150" from="D2toC2" to="C1toC2"/>
    <trip depart="38" id="aux151" from="B4toB3" to="B4toB3"/>
    <trip depart="38" id="aux152" from="C4toB4" to="A3toA4"/>
    <trip depart="38" id="aux157" from="F4toF3" to="B2toA2"/>
    <trip depart="38" id="aux187" from="B3toC3" to="A3toA4"/>
    <trip depart="38" id="aux188" from="D6toD5" to="A5toB5"/>
    <trip depart="39" id="aux159" from="A5toA6" to="C4toB4"/>
    <trip depart="39" id="aux161" from="B4toA4" to="B4toB3"/>
    <trip depart="39" id="aux173" from="C2toC3" to="A3toB3"/>
    <trip depart="39" id="aux180" from="B6toC6" to="B6toC6"/>
    <trip depart="39" id="aux182" from="E5toE6" to="F3toF2"/>
    <trip depart="39" id="aux183" from="B5toB4" to="C3toD3"/>
    <trip depart="39" id="aux191" from="A1toA2" to="E1toD1"/>
    <trip depart="39" id="aux192" from="D2toD1" to="A3toA4"/>
    <trip depart="39" id="aux194" from="C2toB2" to="A3toA4"/>
    <trip depart="40" id="aux174" from="C1toC2" to="F4toF3"/>
    <trip depart="40" id="aux185" from="E4toE5" to="D4toD3"/>
    <trip depart="40" id="aux196" from="A5toB5" to="E2toD2"/>
    <trip depart="41" id="aux190" from="B3toC3" to="E3toF3"/>
    <trip depart="41" id="aux193" from="D6toD5" to="F4toF3"/>
    <trip depart="41" id="aux200" from="E2toE3" to="E3toE4"/>
    <trip depart="41" id="aux201" from="F4toE4" to="E4toE5"/>
    <trip depart="41" id="aux203" from="E5toF5" to="E4toE5"/>
    <trip depart="41" id="aux204" from="D4toD3" to="D3toD2"/>
    <trip depart="42" id="aux171" from="D5toD4" to="E5toF5"/>
    <trip depart="42" id="aux186" from="B6toC6" to="B6toB5"/>
    <trip depart="42" id="aux189" from="E5toE6" to="C5toD5"/>
    <trip depart="42" id="aux197" from="A3toB3" to="F4toF3"/>
    <trip depart="42" id="aux206" from="F2toE2" to="B4toB3"/>
    <trip depart="42" id="aux207" from="C1toB1" to="C3toC4"/>
    <trip depart="42" id="aux208" from="D2toC2" to="C5toD5"/>
    <trip depart="43" id="aux176" from="C2toC3" to="E2toE3"/>
    <trip depart="43" id="aux211" from="B5toC5" to="A4toA5"/>
    <trip depart="44" id="aux199" from="E6toF6" to="C5toC6"/>
    <trip depart="44" id="aux210" from="F4toE4" to="A3toB3"/>
    <trip depart="44" id="aux212" from="D6toD5" to="D3toE3"/>
    <trip depart="44" id="aux215" from="E5toF5" to="E4toE5"/>
    <trip depart="44" id="aux217" from="B1toA1" to="C4toB4"/>
    <trip depart="44" id="aux219" from="E1toD1" to="E2toD2"/>
    <trip depart="45" id="aux184" from="B4toA4" to="A5toA6"/>
    <trip depart="45" id="aux202" from="E5toE6" to="C3toC4"/>
    <trip depart="45" id="aux214" from="B6toC6" to="C3toC4"/>
    <trip depart="45" id="aux218" from="D5toD4" to="A1toA2"/>
    <trip depart="45" id="aux220" from="B6toB5" to="C1toC2"/>
    <trip depart="45" id="aux222" from="F4toF3" to="C4toC5"/>
    <trip depart="46" id="aux221" from="B5toC5" to="B6toB5"/>
    <trip depart="46" id="aux228" from="B5toB4" to="F5toF4"/>
    <trip depart="47" id="aux155" from="B4toB3" to="B5toB4"/>
    <trip depart="47" id="aux195" from="D3toE3" to="B6toB5"/>
    <trip depart="47" id="aux205" from="C1toC2" to="C3toC4"/>
    <trip depart="47" id="aux232" from="B2toB1" to="A5toA6"/>
    <trip depart="47" id="aux233" from="B1toA1" to="A6toB6"/>
    <trip depart="48" id="aux225" from="F4toF3" to="F1toE1"/>
    <trip depart="48" id="aux226" from="D2toD1" to="C6toD6"/>
    <trip depart="48" id="aux236" from="D5toD4" to="B4toA4"/>
    <trip depart="49" id="aux198" from="C2toC3" to="B3toC3"/>
    <trip depart="49" id="aux223" from="C4toC5" to="D3toE3"/>
    <trip depart="49" id="aux231" from="B5toC5" to="C4toC5"/>
    <trip depart="49" id="aux241" from="B6toC6" to="C3toD3"/>
    <trip depart="49" id="aux243" from="B5toB4" to="F2toF1"/>
    <trip depart="49" id="aux244" from="A5toA6" to="F3toF2"/>
    <trip depart="50" id="aux209" from="D3toE3" to="C5toD5"/>
    <trip depart="50" id="aux216" from="D6toD5" to="F2toE2"/>
    <trip depart="50" id="aux234" from="B2toB1" to="C1toB1"/>
    <trip depart="50" id="aux235" from="B1toA1" to="F3toF2"/>
    <trip depart="50" id="aux238" from="A3toB3" to="F6toF5"/>
    <trip depart="50" id="aux240" from="E1toE2" to="D6toD5"/>
    <trip depart="50" id="aux245" from="E2toD2" to="F1toE1"/>
    <trip depart="50" id="aux246" from="D3toD2" to="D6toD5"/>
    <trip depart="51" id="aux229" from="D4toC4" to="F2toE2"/>
    <trip depart="51" id="aux230" from="B3toB2" to="E1toD1"/>
    <trip depart="51" id="aux242" from="D1toC1" to="F1toE1"/>
    <trip depart="51" id="aux251" from="D4toD3" to="E6toF6"/>
    <trip depart="51" id="aux252" from="F3toF2" to="E2toE3"/>
    <trip depart="52" id="aux258" from="D2toD1" to="D2toD1"/>
    <trip depart="52" id="aux259" from="D5toE5" to="D3toD2"/>
    <trip depart="53" id="aux237" from="B2toB1" to="E1toD1"/>
    <trip depart="53" id="aux239" from="D3toE3" to="C1toC2"/>
    <trip depart="53" id="aux249" from="A3toB3" to="E2toD2"/>
    <trip depart="53" id="aux250" from="C3toD3" to="E1toD1"/>
    <trip depart="53" id="aux263" from="B1toA1" to="A5toA6"/>
    <trip depart="53" id="aux264" from="B2toA2" to="B3toC3"/>
    <trip depart="54" id="aux256" from="D4toD3" to="A3toB3"/>
    <trip depart="54" id="aux268" from="E2toE3" to="C2toB2"/>
    <trip depart="55" id="aux248" from="C2toC3" to="E3toF3"/>
    <trip depart="55" id="aux270" from="D5toE5" to="E4toE5"/>
    <trip depart="55" id="aux271" from="D2toC2" to="D5toE5"/>
    <trip depart="55" id="aux272" from="D3toD2" to="C6toD6"/>
    <trip depart="55" id="aux273" from="F3toF2" to="E4toD4"/>
    <trip depart="55" id="aux274" from="E5toE6" to="D4toC4"/>
    <trip depart="56" id="aux262" from="B6toC6" to="F3toF2"/>
    <trip depart="56" id="aux265" from="A3toB3" to="E5toF5"/>
    <trip depart="56" id="aux266" from="C3toD3" to="C4toB4"/>
    <trip depart="56" id="aux275" from="C3toC4" to="B4toA4"/>
    <trip depart="56" id="aux276" from="E3toE4" to="E1toE2"/>
    <trip depart="56" id="aux277" from="C4toB4" to="A3toA4"/>
    <trip depart="57" id="aux254" from="A2toA3" to="F6toF5"/>
    <trip depart="57" id="aux255" from="A1toA2" to="C4toC5"/>
    <trip depart="57" id="aux278" from="F4toE4" to="E1toD1"/>
    <trip depart="57" id="aux279" from="E2toE3" to="E5toF5"/>
    <trip depart="57" id="aux281" from="E4toE5" to="D5toD4"/>
    <trip depart="57" id="aux282" from="D3toE3" to="F1toE1"/>
    <trip depart="57" id="aux283" from="B5toC5" to="F3toF2"/>
    <trip depart="57" id="aux284" from="B5toB4" to="F6toF5"/>
    <trip depart="58" id="aux213" from="C1toC2" to="E5toF5"/>
    <trip depart="58" id="aux288" from="E4toE5" to="A4toA5"/>
    <trip depart="59" id="aux247" from="F6toF5" to="C3toC4"/>
    <trip depart="59" id="aux285" from="C3toD3" to="C3toD3"/>
    <trip depart="59" id="aux294" from="E4toE5" to="B4toA4"/>
    <trip depart="60" id="aux261" from="E1toE2" to="B3toB2"/>
    <trip depart="60" id="aux295" from="F4toF3" to="C5toD5"/>
    <trip depart="60" id="aux296" from="D2toD1" to="D2toC2"/>
    <trip depart="60" id="aux297" from="E5toE6" to="C2toB2"/>
    <trip depart="61" id="aux301" from="E2toE3" to="D5toE5"/>
    <trip depart="62" id="aux267" from="A3toB3" to="D2toC2"/>
    <trip depart="62" id="aux298" from="D2toC2" to="C6toD6"/>
    <trip depart="62" id="aux304" from="A4toA5" to="B3toC3"/>
    <trip depart="62" id="aux306" from="B6toC6" to="E1toE2"/>
    <trip depart="62" id="aux308" from="E2toD2" to="E3toE4"/>
    <trip depart="63" id="aux310" from="A3toA4" to="E4toD4"/>
    <trip depart="63" id="aux312" from="E5toE6" to="D4toC4"/>
    <trip depart="64" id="aux224" from="D6toD5" to="D4toC4"/>
    <trip depart="64" id="aux286" from="C5toD5" to="F4toF3"/>
    <trip depart="64" id="aux289" from="C3toD3" to="E4toE5"/>
    <trip depart="64" id="aux290" from="C4toB4" to="D2toC2"/>
    <trip depart="64" id="aux316" from="B2toB1" to="F5toF4"/>
    <trip depart="64" id="aux318" from="E1toE2" to="E5toF5"/>
    <trip depart="65" id="aux227" from="C1toC2" to="A1toA2"/>
    <trip depart="65" id="aux280" from="E3toE4" to="C2toB2"/>
    <trip depart="65" id="aux291" from="A3toB3" to="E3toF3"/>
    <trip depart="65" id="aux305" from="B5toC5" to="F3toF2"/>
    <trip depart="65" id="aux309" from="F4toE4" to="D3toD2"/>
    <trip depart="65" id="aux320" from="F2toF1" to="B3toB2"/>
    <trip depart="65" id="aux324" from="E4toE5" to="A1toA2"/>
    <trip depart="66" id="aux257" from="F6toF5" to="B4toB3"/>
    <trip depart="66" id="aux311" from="A3toA4" to="E3toE4"/>
    <trip depart="66" id="aux321" from="E4toD4" to="E1toD1"/>
    <trip depart="66" id="aux326" from="F2toE2" to="B1toA1"/>
    <trip depart="66" id="aux328" from="F1toE1" to="E1toD1"/>
    <trip depart="66" id="aux329" from="B3toC3" to="B1toA1"/>
    <trip depart="67" id="aux269" from="C6toD6" to="E1toE2"/>
    <trip depart="67" id="aux303" from="C3toD3" to="B5toB4"/>
    <trip depart="67" id="aux333" from="D3toD2" to="F1toE1"/>
    <trip depart="68" id="aux253" from="C2toC3" to="F4toF3"/>
    <trip depart="68" id="aux299" from="A3toB3" to="B1toA1"/>
    <trip depart="68" id="aux302" from="E3toE4" to="F2toF1"/>
    <trip depart="68" id="aux307" from="B4toB3" to="D2toD1"/>
    <trip depart="68" id="aux327" from="F4toE4" to="C3toD3"/>
    <trip depart="68" id="aux336" from="F4toF3" to="A3toA4"/>
    <trip depart="69" id="aux331" from="D4toD3" to="E2toE3"/>
    <trip depart="69" id="aux343" from="C1toB1" to="D6toE6"/>
    <trip depart="70" id="aux300" from="C5toD5" to="E5toE6"/>
    <trip depart="70" id="aux317" from="C3toD3" to="B6toC6"/>
    <trip depart="70" id="aux322" from="C6toD6" to="F5toF4"/>
    <trip depart="70" id="aux334" from="E4toE5" to="F6toF5"/>
    <trip depart="70" id="aux348" from="A5toB5" to="B6toB5"/>
    <trip depart="70" id="aux349" from="E2toD2" to="B3toB2"/>
    <trip depart="71" id="aux287" from="B2toA2" to="D3toE3"/>
    <trip depart="71" id="aux330" from="E6toF6" to="A2toA3"/>
    <trip depart="71" id="aux338" from="F4toF3" to="F6toF5"/>
    <trip depart="71" id="aux353" from="E1toE2" to="B4toB3"/>
    <trip depart="72" id="aux260" from="F6toF5" to="B6toB5"/>
    <trip depart="72" id="aux332" from="E3toE4" to="E4toD4"/>
    <trip depart="72" id="aux340" from="D5toE5" to="D1toC1"/>
    <trip depart="72" id="aux342" from="B3toB2" to="A4toA5"/>
    <trip depart="72" id="aux351" from="D6toD5" to="D4toC4"/>
    <trip depart="72" id="aux354" from="E4toD4" to="D5toD4"/>
    <trip depart="72" id="aux358" from="A4toA5" to="B1toA1"/>
    <trip depart="73" id="aux319" from="C3toD3" to="D3toD2"/>
    <trip depart="73" id="aux323" from="C6toD6" to="F4toE4"/>
    <trip depart="73" id="aux337" from="B3toC3" to="B3toC3"/>
    <trip depart="73" id="aux346" from="E4toE5" to="A3toA4"/>
    <trip depart="73" id="aux363" from="C1toC2" to="D3toD2"/>
    <trip depart="73" id="aux364" from="B5toB4" to="A5toA6"/>
    <trip depart="74" id="aux313" from="B1toA1" to="A3toA4"/>
    <trip depart="74" id="aux344" from="F4toF3" to="F2toF1"/>
    <trip depart="74" id="aux347" from="F3toF2" to="C2toC3"/>
    <trip depart="74" id="aux368" from="A5toB5" to="F5toF4"/>
    <trip depart="75" id="aux341" from="E3toE4" to="F4toE4"/>
    <trip depart="75" id="aux355" from="D6toD5" to="C2toC3"/>
    <trip depart="75" id="aux357" from="C4toB4" to="B5toC5"/>
    <trip depart="75" id="aux359" from="A4toA5" to="D3toD2"/>
    <trip depart="75" id="aux370" from="E6toF6" to="E3toE4"/>
    <trip depart="75" id="aux371" from="B4toA4" to="B5toC5"/>
    <trip depart="76" id="aux315" from="C5toD5" to="D3toD2"/>
    <trip depart="76" id="aux352" from="C6toD6" to="D5toD4"/>
    <trip depart="76" id="aux375" from="C4toC5" to="B2toA2"/>
    <trip depart="76" id="aux376" from="E1toE2" to="E5toE6"/>
    <trip depart="77" id="aux366" from="E2toD2" to="A2toA3"/>
    <trip depart="77" id="aux367" from="D5toE5" to="A3toA4"/>
    <trip depart="77" id="aux369" from="B6toC6" to="C4toC5"/>
    <trip depart="77" id="aux374" from="E4toE5" to="C3toD3"/>
    <trip depart="77" id="aux378" from="C1toB1" to="B5toC5"/>
    <trip depart="77" id="aux381" from="A3toA4" to="E3toE4"/>
    <trip depart="77" id="aux383" from="B4toB3" to="A1toA2"/>
    <trip depart="77" id="aux384" from="B5toC5" to="E5toF5"/>
    <trip depart="78" id="aux292" from="B2toA2" to="C6toD6"/>
    <trip depart="78" id="aux362" from="D2toC2" to="F4toE4"/>
    <trip depart="78" id="aux385" from="F1toE1" to="D2toC2"/>
    <trip depart="79" id="aux335" from="C5toD5" to="B2toA2"/>
    <trip depart="79" id="aux339" from="B3toC3" to="A1toA2"/>
    <trip depart="79" id="aux360" from="D3toE3" to="A6toB6"/>
    <trip depart="79" id="aux373" from="D4toD3" to="A4toA5"/>
    <trip depart="79" id="aux392" from="E5toE6" to="D3toE3"/>
    <trip depart="79" id="aux393" from="C1toC2" to="A3toB3"/>
    <trip depart="80" id="aux356" from="F4toF3" to="D2toC2"/>
    <trip depart="80" id="aux372" from="A1toA2" to="B5toB4"/>
    <trip depart="80" id="aux382" from="E4toE5" to="F3toF2"/>
    <trip depart="80" id="aux391" from="C3toC4" to="A2toA3"/>
    <trip depart="80" id="aux395" from="C3toD3" to="F6toF5"/>
    <trip depart="80" id="aux396" from="F3toF2" to="B2toA2"/>
    <trip depart="80" id="aux399" from="E1toE2" to="E3toF3"/>
    <trip depart="81" id="aux293" from="B2toA2" to="E1toE2"/>
    <trip depart="81" id="aux345" from="D4toC4" to="F3toF2"/>
    <trip depart="81" id="aux377" from="C4toC5" to="D4toD3"/>
    <trip depart="81" id="aux403" from="B2toB1" to="E3toE4"/>
    <trip depart="82" id="aux379" from="C4toB4" to="B2toB1"/>
    <trip depart="83" id="aux398" from="C3toD3" to="A1toA2"/>
    <trip depart="83" id="aux401" from="E3toF3" to="E3toF3"/>
    <trip depart="83" id="aux410" from="C6toD6" to="E1toD1"/>
    <trip depart="83" id="aux414" from="E5toE6" to="C5toC6"/>
    <trip depart="84" id="aux314" from="A2toA3" to="B5toB4"/>
    <trip depart="84" id="aux325" from="B2toA2" to="B2toA2"/>
    <trip depart="84" id="aux417" from="E1toE2" to="F3toF2"/>
    <trip depart="85" id="aux350" from="D4toC4" to="A5toB5"/>
    <trip depart="85" id="aux361" from="C2toC3" to="E4toD4"/>
    <trip depart="85" id="aux386" from="D4toD3" to="C5toC6"/>
    <trip depart="85" id="aux387" from="D5toE5" to="E3toF3"/>
    <trip depart="85" id="aux389" from="A3toA4" to="E1toD1"/>
    <trip depart="85" id="aux404" from="D2toD1" to="B6toB5"/>
    <trip depart="85" id="aux405" from="F4toF3" to="D4toD3"/>
    <trip depart="85" id="aux408" from="C1toB1" to="A4toA5"/>
    <trip depart="85" id="aux409" from="D5toD4" to="A5toA6"/>
    <trip depart="85" id="aux411" from="D2toC2" to="E1toD1"/>
    <trip depart="85" id="aux413" from="C2toB2" to="D6toE6"/>
    <trip depart="85" id="aux416" from="B4toA4" to="B4toB3"/>
    <trip depart="85" id="aux423" from="D3toD2" to="B1toA1"/>
    <trip depart="86" id="aux365" from="E4toD4" to="C4toB4"/>
    <trip depart="86" id="aux380" from="C4toC5" to="C1toB1"/>
    <trip depart="86" id="aux394" from="C4toB4" to="C5toD5"/>
    <trip depart="86" id="aux397" from="C3toC4" to="C2toC3"/>
    <trip depart="86" id="aux422" from="E2toE3" to="C6toD6"/>
    <trip depart="86" id="aux428" from="D6toE6" to="C4toC5"/>
    <trip depart="86" id="aux429" from="F1toE1" to="A3toB3"/>
    <trip depart="87" id="aux388" from="B3toC3" to="F4toE4"/>
    <trip depart="87" id="aux418" from="E2toD2" to="C2toB2"/>
    <trip depart="87" id="aux433" from="B5toC5" to="C1toC2"/>
    <trip depart="88" id="aux406" from="D2toD1" to="F6toF5"/>
    <trip depart="88" id="aux420" from="A3toA4" to="D5toE5"/>
    <trip depart="88" id="aux427" from="C2toB2" to="A5toB5"/>
    <trip depart="88" id="aux432" from="B6toC6" to="C1toB1"/>
    <trip depart="88" id="aux435" from="F2toF1" to="D4toD3"/>
    <trip depart="88" id="aux438" from="A6toB6" to="B5toB4"/>
    <trip depart="88" id="aux439" from="C1toB1" to="C4toC5"/>
    <trip depart="89" id="aux407" from="B6toB5" to="C3toD3"/>
    <trip depart="89" id="aux430" from="D3toD2" to="A5toA6"/>
    <trip depart="90" id="aux425" from="E2toD2" to="B5toB4"/>
    <trip depart="90" id="aux431" from="D6toE6" to="F4toF3"/>
    <trip depart="91" id="aux402" from="D5toE5" to="C2toC3"/>
    <trip depart="91" id="aux412" from="D2toD1" to="C3toD3"/>
    <trip depart="91" id="aux426" from="E3toF3" to="D6toE6"/>
    <trip depart="91" id="aux436" from="B6toC6" to="C1toC2"/>
    <trip depart="91" id="aux443" from="B5toC5" to="A6toB6"/>
    <trip depart="91" id="aux445" from="F2toF1" to="D2toC2"/>
    <trip depart="92" id="aux421" from="C4toB4" to="C3toC4"/>
    <trip depart="92" id="aux424" from="A3toA4" to="E1toD1"/>
    <trip depart="92" id="aux455" from="B3toC3" to="E4toE5"/>
    <trip depart="92" id="aux459" from="C3toC4" to="B6toB5"/>
    <trip depart="93" id="aux390" from="A1toA2" to="E4toD4"/>
    <trip depart="93" id="aux437" from="F3toF2" to="C3toC4"/>
    <trip depart="93" id="aux446" from="D6toE6" to="B3toB2"/>
    <trip depart="93" id="aux457" from="A5toB5" to="E4toE5"/>
    <trip depart="93" id="aux462" from="C2toB2" to="E5toF5"/>
    <trip depart="93" id="aux464" from="B2toB1" to="D5toD4"/>
    <trip depart="94" id="aux419" from="D2toC2" to="D6toE6"/>
    <trip depart="94" id="aux449" from="E3toF3" to="F4toE4"/>
    <trip depart="94" id="aux456" from="F4toE4" to="B6toB5"/>
    <trip depart="95" id="aux463" from="B3toC3" to="F3toF2"/>
    <trip depart="96" id="aux400" from="E4toD4" to="E1toE2"/>
    <trip depart="96" id="aux447" from="D4toD3" to="A1toA2"/>
    <trip depart="96" id="aux475" from="B4toA4" to="A1toA2"/>
    <trip depart="96" id="aux476" from="E1toE2" to="C6toD6"/>
    <trip depart="97" id="aux441" from="A5toA6" to="A6toB6"/>
    <trip depart="97" id="aux478" from="B1toA1" to="E2toD2"/>
    <trip depart="97" id="aux480" from="F3toF2" to="D1toC1"/>
    <trip depart="98" id="aux442" from="C5toD5" to="B1toA1"/>
    <trip depart="98" id="aux467" from="B2toB1" to="D4toC4"/>
    <trip depart="98" id="aux482" from="E2toD2" to="E2toE3"/>
    <trip depart="98" id="aux487" from="C1toC2" to="E2toE3"/>
    <trip depart="99" id="aux434" from="E3toE4" to="D3toD2"/>
    <trip depart="99" id="aux450" from="D4toD3" to="D5toE5"/>
    <trip depart="99" id="aux469" from="B3toC3" to="B3toC3"/>
    <trip depart="99" id="aux491" from="B6toB5" to="F4toE4"/>
    <trip depart="100" id="aux461" from="D5toE5" to="E4toE5"/>
    <trip depart="100" id="aux471" from="A5toA6" to="A3toB3"/>
    <trip depart="100" id="aux483" from="A1toA2" to="B3toB2"/>
    <trip depart="100" id="aux490" from="B1toA1" to="B4toA4"/>
    <trip depart="101" id="aux465" from="C4toB4" to="B3toB2"/>
    <trip depart="101" id="aux472" from="B5toC5" to="C1toB1"/>
    <trip depart="101" id="aux474" from="B2toB1" to="A2toA3"/>
    <trip depart="101" id="aux502" from="E4toE5" to="A6toB6"/>
    <trip depart="102" id="aux468" from="A5toB5" to="D3toD2"/>
    <trip depart="102" id="aux493" from="B6toB5" to="E5toF5"/>
    <trip depart="102" id="aux498" from="D2toD1" to="E2toD2"/>
    <trip depart="102" id="aux509" from="E6toF6" to="D5toE5"/>
    <trip depart="103" id="aux486" from="C3toC4" to="C2toC3"/>
    <trip depart="103" id="aux510" from="A4toA5" to="D6toE6"/>
    <trip depart="103" id="aux511" from="D3toD2" to="E4toE5"/>
    <trip depart="104" id="aux479" from="E2toE3" to="F6toF5"/>
    <trip depart="104" id="aux485" from="F6toF5" to="A5toB5"/>
    <trip depart="104" id="aux495" from="D4toD3" to="F6toF5"/>
    <trip depart="104" id="aux513" from="F4toE4" to="F1toE1"/>
    <trip depart="104" id="aux519" from="E3toF3" to="D4toD3"/>