<?xml version="1.0" encoding="UTF-8"?>

<!-- generated on Fri Mar  1 14:56:25 2013 by SUMO netconvert Version 0.16.0
<?xml version="1.0" encoding="UTF-8"?>

<configuration xmlns:xsi="http://www.w3.org/2001/XMLSchema-instance" xsi:noNamespaceSchemaLocation="http://sumo.sf.net/xsd/netconvertConfiguration.xsd">

    <input>
        <sumo-net-file value="Rede6x6-TL.net.xml"/>
    </input>

    <output>
        <output-file value="igrid.net.xml"/>
    </output>

    <processing>
        <no-turnarounds value="true"/>
        <offset.disable-normalization value="true"/>
    </processing>

</configuration>
-->

<net version="0.13" xmlns:xsi="http://www.w3.org/2001/XMLSchema-instance" xsi:noNamespaceSchemaLocation="http://sumo.sf.net/xsd/net_file.xsd">

    <location netOffset="-2000.00,-2000.00" convBoundary="0.00,0.00,1500.00,1500.00" origBoundary="2000.00,2000.00,3500.00,3500.00" projParameter="!"/>

    <edge id=":A1_0" function="internal">
        <lane id=":A1_0_0" index="0" speed="13.90" length="2.58" shape="-0.05,1501.65 -0.75,1501.55 -1.25,1501.25 -1.55,1500.75 -1.65,1500.05"/>
    </edge>
    <edge id=":A2_0" function="internal">
        <lane id=":A2_0_0" index="0" speed="13.90" length="6.20" shape="-1.65,1204.75 -1.65,1198.55"/>
    </edge>
    <edge id=":A2_1" function="internal">
        <lane id=":A2_1_0" index="0" speed="13.90" length="5.00" shape="1.45,1201.65 0.09,1201.46 -0.87,1200.88 -1.46,1199.91 -1.65,1198.55"/>
    </edge>
    <edge id=":A3_0" function="internal">
        <lane id=":A3_0_0" index="0" speed="13.90" length="6.20" shape="-1.65,901.45 -1.65,895.25"/>
    </edge>
    <edge id=":A3_1" function="internal">
        <lane id=":A3_1_0" index="0" speed="13.90" length="5.00" shape="-1.65,901.45 -1.46,900.09 -0.88,899.12 0.09,898.54 1.45,898.35"/>
    </edge>
    <edge id=":A4_0" function="internal">
        <lane id=":A4_0_0" index="0" speed="13.90" length="6.20" shape="-1.65,604.75 -1.65,598.55"/>
    </edge>
    <edge id=":A4_1" function="internal">
        <lane id=":A4_1_0" index="0" speed="13.90" length="5.00" shape="1.45,601.65 0.09,601.46 -0.87,600.88 -1.46,599.91 -1.65,598.55"/>
    </edge>
    <edge id=":A5_0" function="internal">
        <lane id=":A5_0_0" index="0" speed="13.90" length="6.20" shape="-1.65,301.45 -1.65,295.25"/>
    </edge>
    <edge id=":A5_1" function="internal">
        <lane id=":A5_1_0" index="0" speed="13.90" length="5.00" shape="-1.65,301.45 -1.46,300.09 -0.88,299.12 0.09,298.54 1.45,298.35"/>
    </edge>
    <edge id=":A6_0" function="internal">
        <lane id=":A6_0_0" index="0" speed="13.90" length="2.58" shape="-1.65,-0.05 -1.55,-0.75 -1.25,-1.25 -0.75,-1.55 -0.05,-1.65"/>
    </edge>
    <edge id=":B1_0" function="internal">
        <lane id=":B1_0_0" index="0" speed="13.90" length="6.20" shape="304.75,1501.65 298.55,1501.65"/>
    </edge>
    <edge id=":B1_1" function="internal">
        <lane id=":B1_1_0" index="0" speed="13.90" length="5.00" shape="301.65,1498.55 301.46,1499.91 300.88,1500.88 299.91,1501.46 298.55,1501.65"/>
    </edge>
    <edge id=":B2_0" function="internal">
        <lane id=":B2_0_0" index="0" speed="13.90" length="5.00" shape="304.75,1201.65 303.39,1201.84 302.42,1202.43 301.84,1203.39 301.65,1204.75"/>
    </edge>
    <edge id=":B2_1" function="internal">
        <lane id=":B2_1_0" index="0" speed="13.90" length="6.20" shape="304.75,1201.65 298.55,1201.65"/>
    </edge>
    <edge id=":B2_2" function="internal">
        <lane id=":B2_2_0" index="0" speed="13.90" length="6.20" shape="301.65,1198.55 301.65,1204.75"/>
    </edge>
    <edge id=":B2_3" function="internal">
        <lane id=":B2_3_0" index="0" speed="13.90" length="5.00" shape="301.65,1198.55 301.46,1199.91 300.88,1200.88 299.91,1201.46 298.55,1201.65"/>
    </edge>
    <edge id=":B3_0" function="internal">
        <lane id=":B3_0_0" index="0" speed="13.90" length="5.00" shape="301.65,888.65 301.84,890.01 302.42,890.98 303.39,891.56 304.75,891.75"/>
    </edge>
    <edge id=":B3_1" function="internal">
        <lane id=":B3_1_0" index="0" speed="13.90" length="12.80" shape="301.65,888.65 301.65,892.06 301.65,895.05 301.65,898.04 301.65,901.45"/>
    </edge>
    <edge id=":B3_2" function="internal">
        <lane id=":B3_2_0" index="0" speed="13.90" length="7.02" shape="298.55,898.35 304.75,895.05"/>
    </edge>
    <edge id=":B3_3" function="internal">
        <lane id=":B3_3_0" index="0" speed="13.90" length="6.20" shape="298.55,898.35 304.75,898.35"/>
    </edge>
    <edge id=":B3_4" function="internal">
        <lane id=":B3_4_0" index="0" speed="13.90" length="5.00" shape="298.55,898.35 299.91,898.54 300.88,899.12 301.46,900.09 301.65,901.45"/>
    </edge>
    <edge id=":B4_0" function="internal">
        <lane id=":B4_0_0" index="0" speed="13.90" length="5.00" shape="304.75,601.65 303.39,601.84 302.42,602.42 301.84,603.39 301.65,604.75"/>
    </edge>
    <edge id=":B4_1" function="internal">
        <lane id=":B4_1_0" index="0" speed="13.90" length="6.20" shape="304.75,601.65 298.55,601.65"/>
    </edge>
    <edge id=":B4_2" function="internal">
        <lane id=":B4_2_0" index="0" speed="13.90" length="6.20" shape="301.65,598.55 301.65,604.75"/>
    </edge>
    <edge id=":B4_3" function="internal">
        <lane id=":B4_3_0" index="0" speed="13.90" length="5.00" shape="301.65,598.55 301.46,599.91 300.88,600.88 299.91,601.46 298.55,601.65"/>
    </edge>
    <edge id=":B5_0" function="internal">
        <lane id=":B5_0_0" index="0" speed="13.90" length="5.00" shape="301.65,295.25 301.84,296.61 302.42,297.58 303.39,298.16 304.75,298.35"/>
    </edge>
    <edge id=":B5_1" function="internal">
        <lane id=":B5_1_0" index="0" speed="13.90" length="6.20" shape="301.65,295.25 301.65,301.45"/>
    </edge>
    <edge id=":B5_2" function="internal">
        <lane id=":B5_2_0" index="0" speed="13.90" length="6.20" shape="298.55,298.35 304.75,298.35"/>
    </edge>
    <edge id=":B5_3" function="internal">
        <lane id=":B5_3_0" index="0" speed="13.90" length="5.00" shape="298.55,298.35 299.91,298.54 300.88,299.12 301.46,300.09 301.65,301.45"/>
    </edge>
    <edge id=":B6_0" function="internal">
        <lane id=":B6_0_0" index="0" speed="13.90" length="6.20" shape="298.55,-1.65 304.75,-1.65"/>
    </edge>
    <edge id=":B6_1" function="internal">
        <lane id=":B6_1_0" index="0" speed="13.90" length="5.00" shape="298.55,-1.65 299.91,-1.46 300.87,-0.88 301.46,0.09 301.65,1.45"/>
    </edge>
    <edge id=":C1_0" function="internal">
        <lane id=":C1_0_0" index="0" speed="13.90" length="6.20" shape="601.45,1501.65 595.25,1501.65"/>
    </edge>
    <edge id=":C1_1" function="internal">
        <lane id=":C1_1_0" index="0" speed="13.90" length="5.00" shape="601.45,1501.65 600.09,1501.46 599.12,1500.88 598.54,1499.91 598.35,1498.55"/>
    </edge>
    <edge id=":C2_0" function="internal">
        <lane id=":C2_0_0" index="0" speed="13.90" length="5.00" shape="598.35,1204.75 598.16,1203.39 597.58,1202.43 596.61,1201.84 595.25,1201.65"/>
    </edge>
    <edge id=":C2_1" function="internal">
        <lane id=":C2_1_0" index="0" speed="13.90" length="6.20" shape="598.35,1204.75 598.35,1198.55"/>
    </edge>
    <edge id=":C2_2" function="internal">
        <lane id=":C2_2_0" index="0" speed="13.90" length="6.20" shape="601.45,1201.65 595.25,1201.65"/>
    </edge>
    <edge id=":C2_3" function="internal">
        <lane id=":C2_3_0" index="0" speed="13.90" length="5.00" shape="601.45,1201.65 600.09,1201.46 599.12,1200.88 598.54,1199.91 598.35,1198.55"/>
    </edge>
    <edge id=":C3_0" function="internal">
        <lane id=":C3_0_0" index="0" speed="13.90" length="12.80" shape="598.35,901.45 598.35,898.04 598.35,895.05 598.35,892.06 598.35,888.65"/>
    </edge>
    <edge id=":C3_1" function="internal">
        <lane id=":C3_1_0" index="0" speed="13.90" length="3.12" shape="598.35,901.45 598.54,898.65 598.63,898.35"/>
    </edge>
    <edge id=":C3_7" function="internal">
        <lane id=":C3_7_0" index="0" speed="13.90" length="4.73" shape="598.63,898.35 599.12,896.65 600.09,895.45 601.45,895.05"/>
    </edge>
    <edge id=":C3_2" function="internal">
        <lane id=":C3_2_0" index="0" speed="13.90" length="5.00" shape="598.35,901.45 598.54,900.09 599.12,899.13 600.09,898.54 601.45,898.35"/>
    </edge>
    <edge id=":C3_3" function="internal">
        <lane id=":C3_3_0" index="0" speed="13.90" length="5.00" shape="595.25,891.75 596.61,891.56 597.58,890.98 598.16,890.01 598.35,888.65"/>
    </edge>
    <edge id=":C3_4" function="internal">
        <lane id=":C3_4_0" index="0" speed="13.90" length="6.20" shape="595.25,891.75 601.45,891.75"/>
    </edge>
    <edge id=":C3_5" function="internal">
        <lane id=":C3_5_0" index="0" speed="13.90" length="6.20" shape="595.25,895.05 601.45,895.05"/>
    </edge>
    <edge id=":C3_6" function="internal">
        <lane id=":C3_6_0" index="0" speed="13.90" length="6.20" shape="595.25,898.35 601.45,898.35"/>
    </edge>
    <edge id=":C4_0" function="internal">
        <lane id=":C4_0_0" index="0" speed="13.90" length="5.00" shape="598.35,604.75 598.16,603.39 597.58,602.42 596.61,601.84 595.25,601.65"/>
    </edge>
    <edge id=":C4_1" function="internal">
        <lane id=":C4_1_0" index="0" speed="13.90" length="6.20" shape="598.35,604.75 598.35,598.55"/>
    </edge>
    <edge id=":C4_2" function="internal">
        <lane id=":C4_2_0" index="0" speed="13.90" length="6.20" shape="601.45,601.65 595.25,601.65"/>
    </edge>
    <edge id=":C4_3" function="internal">
        <lane id=":C4_3_0" index="0" speed="13.90" length="5.00" shape="601.45,601.65 600.09,601.46 599.12,600.88 598.54,599.91 598.35,598.55"/>
    </edge>
    <edge id=":C5_0" function="internal">
        <lane id=":C5_0_0" index="0" speed="13.90" length="6.20" shape="598.35,301.45 598.35,295.25"/>
    </edge>
    <edge id=":C5_1" function="internal">
        <lane id=":C5_1_0" index="0" speed="13.90" length="5.00" shape="598.35,301.45 598.54,300.09 599.12,299.12 600.09,298.54 601.45,298.35"/>
    </edge>
    <edge id=":C5_2" function="internal">
        <lane id=":C5_2_0" index="0" speed="13.90" length="5.00" shape="595.25,298.35 596.61,298.16 597.58,297.58 598.16,296.61 598.35,295.25"/>
    </edge>
    <edge id=":C5_3" function="internal">
        <lane id=":C5_3_0" index="0" speed="13.90" length="6.20" shape="595.25,298.35 601.45,298.35"/>
    </edge>
    <edge id=":C6_0" function="internal">
        <lane id=":C6_0_0" index="0" speed="13.90" length="5.00" shape="598.35,1.45 598.54,0.09 599.12,-0.87 600.09,-1.46 601.45,-1.65"/>
    </edge>
    <edge id=":C6_1" function="internal">
        <lane id=":C6_1_0" index="0" speed="13.90" length="6.20" shape="595.25,-1.65 601.45,-1.65"/>
    </edge>
    <edge id=":D1_0" function="internal">
        <lane id=":D1_0_0" index="0" speed="13.90" length="6.20" shape="904.75,1501.65 898.55,1501.65"/>
    </edge>
    <edge id=":D1_1" function="internal">
        <lane id=":D1_1_0" index="0" speed="13.90" length="5.00" shape="901.65,1498.55 901.46,1499.91 900.88,1500.88 899.91,1501.46 898.55,1501.65"/>
    </edge>
    <edge id=":D2_0" function="internal">
        <lane id=":D2_0_0" index="0" speed="13.90" length="5.00" shape="904.75,1201.65 903.39,1201.84 902.43,1202.43 901.84,1203.39 901.65,1204.75"/>
    </edge>
    <edge id=":D2_1" function="internal">
        <lane id=":D2_1_0" index="0" speed="13.90" length="6.20" shape="904.75,1201.65 898.55,1201.65"/>
    </edge>
    <edge id=":D2_2" function="internal">
        <lane id=":D2_2_0" index="0" speed="13.90" length="6.20" shape="901.65,1198.55 901.65,1204.75"/>
    </edge>
    <edge id=":D2_3" function="internal">
        <lane id=":D2_3_0" index="0" speed="13.90" length="5.00" shape="901.65,1198.55 901.46,1199.91 900.88,1200.88 899.91,1201.46 898.55,1201.65"/>
    </edge>
    <edge id=":D3_0" function="internal">
        <lane id=":D3_0_0" index="0" speed="13.90" length="5.00" shape="901.65,888.65 901.84,890.01 902.42,890.98 903.39,891.56 904.75,891.75"/>
    </edge>
    <edge id=":D3_1" function="internal">
        <lane id=":D3_1_0" index="0" speed="13.90" length="12.80" shape="901.65,888.65 901.65,892.06 901.65,895.05 901.65,898.04 901.65,901.45"/>
    </edge>
    <edge id=":D3_2" function="internal">
        <lane id=":D3_2_0" index="0" speed="13.90" length="6.20" shape="898.55,891.75 904.75,891.75"/>
    </edge>
    <edge id=":D3_3" function="internal">
        <lane id=":D3_3_0" index="0" speed="13.90" length="6.20" shape="898.55,895.05 904.75,895.05"/>
    </edge>
    <edge id=":D3_4" function="internal">
        <lane id=":D3_4_0" index="0" speed="13.90" length="6.20" shape="898.55,898.35 904.75,898.35"/>
    </edge>
    <edge id=":D3_5" function="internal">
        <lane id=":D3_5_0" index="0" speed="13.90" length="5.00" shape="898.55,898.35 899.91,898.54 900.88,899.12 901.46,900.09 901.65,901.45"/>
    </edge>
    <edge id=":D4_0" function="internal">
        <lane id=":D4_0_0" index="0" speed="13.90" length="5.00" shape="904.75,601.65 903.39,601.84 902.43,602.42 901.84,603.39 901.65,604.75"/>
    </edge>
    <edge id=":D4_1" function="internal">
        <lane id=":D4_1_0" index="0" speed="13.90" length="6.20" shape="904.75,601.65 898.55,601.65"/>
    </edge>
    <edge id=":D4_2" function="internal">
        <lane id=":D4_2_0" index="0" speed="13.90" length="6.20" shape="901.65,598.55 901.65,604.75"/>
    </edge>
    <edge id=":D4_3" function="internal">
        <lane id=":D4_3_0" index="0" speed="13.90" length="5.00" shape="901.65,598.55 901.46,599.91 900.88,600.88 899.91,601.46 898.55,601.65"/>
    </edge>
    <edge id=":D5_0" function="internal">
        <lane id=":D5_0_0" index="0" speed="13.90" length="5.00" shape="901.65,295.25 901.84,296.61 902.42,297.58 903.39,298.16 904.75,298.35"/>
    </edge>
    <edge id=":D5_1" function="internal">
        <lane id=":D5_1_0" index="0" speed="13.90" length="6.20" shape="901.65,295.25 901.65,301.45"/>
    </edge>
    <edge id=":D5_2" function="internal">
        <lane id=":D5_2_0" index="0" speed="13.90" length="6.20" shape="898.55,298.35 904.75,298.35"/>
    </edge>
    <edge id=":D5_3" function="internal">
        <lane id=":D5_3_0" index="0" speed="13.90" length="5.00" shape="898.55,298.35 899.91,298.54 900.88,299.12 901.46,300.09 901.65,301.45"/>
    </edge>
    <edge id=":D6_0" function="internal">
        <lane id=":D6_0_0" index="0" speed="13.90" length="6.20" shape="898.55,-1.65 904.75,-1.65"/>
    </edge>
    <edge id=":D6_1" function="internal">
        <lane id=":D6_1_0" index="0" speed="13.90" length="5.00" shape="898.55,-1.65 899.91,-1.46 900.88,-0.88 901.46,0.09 901.65,1.45"/>
    </edge>
    <edge id=":E1_0" function="internal">
        <lane id=":E1_0_0" index="0" speed="13.90" length="6.20" shape="1201.45,1501.65 1195.25,1501.65"/>
    </edge>
    <edge id=":E1_1" function="internal">
        <lane id=":E1_1_0" index="0" speed="13.90" length="5.00" shape="1201.45,1501.65 1200.09,1501.46 1199.12,1500.88 1198.54,1499.91 1198.35,1498.55"/>
    </edge>
    <edge id=":E2_0" function="internal">
        <lane id=":E2_0_0" index="0" speed="13.90" length="5.00" shape="1198.35,1204.75 1198.16,1203.39 1197.57,1202.43 1196.61,1201.84 1195.25,1201.65"/>
    </edge>
    <edge id=":E2_1" function="internal">
        <lane id=":E2_1_0" index="0" speed="13.90" length="6.20" shape="1198.35,1204.75 1198.35,1198.55"/>
    </edge>
    <edge id=":E2_2" function="internal">
        <lane id=":E2_2_0" index="0" speed="13.90" length="6.20" shape="1201.45,1201.65 1195.25,1201.65"/>
    </edge>
    <edge id=":E2_3" function="internal">
        <lane id=":E2_3_0" index="0" speed="13.90" length="5.00" shape="1201.45,1201.65 1200.09,1201.46 1199.12,1200.88 1198.54,1199.91 1198.35,1198.55"/>
    </edge>
    <edge id=":E3_0" function="internal">
        <lane id=":E3_0_0" index="0" speed="13.90" length="13.32" shape="1198.35,901.45 1197.83,898.27 1196.70,895.65 1195.57,892.74 1195.05,888.65"/>
    </edge>
    <edge id=":E3_1" function="internal">
        <lane id=":E3_1_0" index="0" speed="13.90" length="12.80" shape="1198.35,901.45 1198.35,898.24 1198.35,895.57 1198.35,892.65 1198.35,888.65"/>
    </edge>
    <edge id=":E3_2" function="internal">
        <lane id=":E3_2_0" index="0" speed="13.90" length="5.00" shape="1198.35,901.45 1198.54,900.09 1199.12,899.13 1200.09,898.54 1201.45,898.35"/>
    </edge>
    <edge id=":E3_3" function="internal">
        <lane id=":E3_3_0" index="0" speed="13.90" length="5.00" shape="1188.65,891.75 1190.01,891.56 1190.97,890.98 1191.56,890.01 1191.75,888.65"/>
    </edge>
    <edge id=":E3_4" function="internal">
        <lane id=":E3_4_0" index="0" speed="13.90" length="10.32" shape="1188.65,895.05 1191.45,894.65 1193.45,893.45 1194.65,891.45 1195.05,888.65"/>
    </edge>
    <edge id=":E3_5" function="internal">
        <lane id=":E3_5_0" index="0" speed="13.90" length="12.80" shape="1188.65,898.35 1192.65,898.35 1195.57,898.35 1198.24,898.35 1201.45,898.35"/>
    </edge>
    <edge id=":E4_0" function="internal">
        <lane id=":E4_0_0" index="0" speed="13.90" length="5.00" shape="1191.75,604.75 1191.56,603.39 1190.97,602.42 1190.01,601.84 1188.65,601.65"/>
    </edge>
    <edge id=":E4_1" function="internal">
        <lane id=":E4_1_0" index="0" speed="13.90" length="6.20" shape="1191.75,604.75 1191.75,598.55"/>
    </edge>
    <edge id=":E4_2" function="internal">
        <lane id=":E4_2_0" index="0" speed="13.90" length="6.20" shape="1195.05,604.75 1195.05,598.55"/>
    </edge>
    <edge id=":E4_3" function="internal">
        <lane id=":E4_3_0" index="0" speed="13.90" length="6.20" shape="1198.35,604.75 1198.35,598.55"/>
    </edge>
    <edge id=":E4_4" function="internal">
        <lane id=":E4_4_0" index="0" speed="13.90" length="12.80" shape="1201.45,601.65 1198.04,601.65 1195.05,601.65 1192.06,601.65 1188.65,601.65"/>
    </edge>
    <edge id=":E4_5" function="internal">
        <lane id=":E4_5_0" index="0" speed="13.90" length="3.12" shape="1201.45,601.65 1198.65,601.46 1198.35,601.37"/>
    </edge>
    <edge id=":E4_7" function="internal">
        <lane id=":E4_7_0" index="0" speed="13.90" length="4.73" shape="1198.35,601.37 1196.65,600.88 1195.45,599.91 1195.05,598.55"/>
    </edge>
    <edge id=":E4_6" function="internal">
        <lane id=":E4_6_0" index="0" speed="13.90" length="5.00" shape="1201.45,601.65 1200.09,601.46 1199.12,600.88 1198.54,599.91 1198.35,598.55"/>
    </edge>
    <edge id=":E5_0" function="internal">
        <lane id=":E5_0_0" index="0" speed="13.90" length="9.06" shape="1191.75,301.45 1198.35,295.25"/>
    </edge>
    <edge id=":E5_1" function="internal">
        <lane id=":E5_1_0" index="0" speed="13.90" length="5.00" shape="1198.35,301.45 1198.54,300.09 1199.12,299.12 1200.09,298.54 1201.45,298.35"/>
    </edge>
    <edge id=":E5_2" function="internal">
        <lane id=":E5_2_0" index="0" speed="13.90" length="10.88" shape="1188.65,298.35 1192.89,298.16 1195.92,297.58 1197.74,296.61 1198.35,295.25"/>
    </edge>
    <edge id=":E5_3" function="internal">
        <lane id=":E5_3_0" index="0" speed="13.90" length="12.80" shape="1188.65,298.35 1192.06,298.35 1195.05,298.35 1198.04,298.35 1201.45,298.35"/>
    </edge>
    <edge id=":E6_0" function="internal">
        <lane id=":E6_0_0" index="0" speed="13.90" length="5.00" shape="1198.35,1.45 1198.54,0.09 1199.12,-0.87 1200.09,-1.46 1201.45,-1.65"/>
    </edge>
    <edge id=":E6_1" function="internal">
        <lane id=":E6_1_0" index="0" speed="13.90" length="6.20" shape="1195.25,-1.65 1201.45,-1.65"/>
    </edge>
    <edge id=":F1_0" function="internal">
        <lane id=":F1_0_0" index="0" speed="13.90" length="2.58" shape="1501.65,1500.05 1501.55,1500.75 1501.25,1501.25 1500.75,1501.55 1500.05,1501.65"/>
    </edge>
    <edge id=":F2_0" function="internal">
        <lane id=":F2_0_0" index="0" speed="13.90" length="6.20" shape="1501.65,1198.55 1501.65,1204.75"/>
    </edge>
    <edge id=":F2_1" function="internal">
        <lane id=":F2_1_0" index="0" speed="13.90" length="5.00" shape="1501.65,1198.55 1501.46,1199.91 1500.88,1200.88 1499.91,1201.46 1498.55,1201.65"/>
    </edge>
    <edge id=":F3_0" function="internal">
        <lane id=":F3_0_0" index="0" speed="13.90" length="6.20" shape="1501.65,895.25 1501.65,901.45"/>
    </edge>
    <edge id=":F3_1" function="internal">
        <lane id=":F3_1_0" index="0" speed="13.90" length="5.00" shape="1498.55,898.35 1499.91,898.54 1500.88,899.12 1501.46,900.09 1501.65,901.45"/>
    </edge>
    <edge id=":F4_0" function="internal">
        <lane id=":F4_0_0" index="0" speed="13.90" length="6.20" shape="1501.65,598.55 1501.65,604.75"/>
    </edge>
    <edge id=":F4_1" function="internal">
        <lane id=":F4_1_0" index="0" speed="13.90" length="5.00" shape="1501.65,598.55 1501.46,599.91 1500.88,600.88 1499.91,601.46 1498.55,601.65"/>
    </edge>
    <edge id=":F5_0" function="internal">
        <lane id=":F5_0_0" index="0" speed="13.90" length="6.20" shape="1501.65,295.25 1501.65,301.45"/>
    </edge>
    <edge id=":F5_1" function="internal">
        <lane id=":F5_1_0" index="0" speed="13.90" length="5.00" shape="1498.55,298.35 1499.91,298.54 1500.88,299.12 1501.46,300.09 1501.65,301.45"/>
    </edge>
    <edge id=":F6_0" function="internal">
        <lane id=":F6_0_0" index="0" speed="13.90" length="2.58" shape="1500.05,-1.65 1500.75,-1.55 1501.25,-1.25 1501.55,-0.75 1501.65,-0.05"/>
    </edge>

    <edge id="A1toA2" from="A1" to="A2" priority="-1">
        <lane id="A1toA2_0" index="0" speed="13.90" length="295.30" shape="-1.65,1500.05 -1.65,1204.75"/>
    </edge>
    <edge id="A2toA3" from="A2" to="A3" priority="-1">
        <lane id="A2toA3_0" index="0" speed="13.90" length="297.10" shape="-1.65,1198.55 -1.65,901.45"/>
    </edge>
    <edge id="A3toA4" from="A3" to="A4" priority="-1">
        <lane id="A3toA4_0" index="0" speed="13.90" length="290.50" shape="-1.65,895.25 -1.65,604.75"/>
    </edge>
    <edge id="A3toB3" from="A3" to="B3" priority="-1">
        <lane id="A3toB3_0" index="0" speed="13.90" length="297.10" shape="1.45,898.35 298.55,898.35"/>
    </edge>
    <edge id="A4toA5" from="A4" to="A5" priority="-1">
        <lane id="A4toA5_0" index="0" speed="13.90" length="297.10" shape="-1.65,598.55 -1.65,301.45"/>
    </edge>
    <edge id="A5toA6" from="A5" to="A6" priority="-1">
        <lane id="A5toA6_0" index="0" speed="13.90" length="295.30" shape="-1.65,295.25 -1.65,-0.05"/>
    </edge>
    <edge id="A5toB5" from="A5" to="B5" priority="-1">
        <lane id="A5toB5_0" index="0" speed="13.90" length="297.10" shape="1.45,298.35 298.55,298.35"/>
    </edge>
    <edge id="A6toB6" from="A6" to="B6" priority="-1">
        <lane id="A6toB6_0" index="0" speed="13.90" length="298.60" shape="-0.05,-1.65 298.55,-1.65"/>
    </edge>
    <edge id="B1toA1" from="B1" to="A1" priority="-1">
        <lane id="B1toA1_0" index="0" speed="13.90" length="298.60" shape="298.55,1501.65 -0.05,1501.65"/>
    </edge>
    <edge id="B2toA2" from="B2" to="A2" priority="-1">
        <lane id="B2toA2_0" index="0" speed="13.90" length="297.10" shape="298.55,1201.65 1.45,1201.65"/>
    </edge>
    <edge id="B2toB1" from="B2" to="B1" priority="-1">
        <lane id="B2toB1_0" index="0" speed="13.90" length="293.80" shape="301.65,1204.75 301.65,1498.55"/>
    </edge>
    <edge id="B3toB2" from="B3" to="B2" priority="-1">
        <lane id="B3toB2_0" index="0" speed="13.90" length="297.10" shape="301.65,901.45 301.65,1198.55"/>
    </edge>
    <edge id="B3toC3" from="B3" to="C3" priority="-1">
        <lane id="B3toC3_0" index="0" speed="13.90" length="290.50" shape="304.75,891.75 595.25,891.75"/>
        <lane id="B3toC3_1" index="1" speed="13.90" length="290.50" shape="304.75,895.05 595.25,895.05"/>
        <lane id="B3toC3_2" index="2" speed="13.90" length="290.50" shape="304.75,898.35 595.25,898.35"/>
    </edge>
    <edge id="B4toA4" from="B4" to="A4" priority="-1">
        <lane id="B4toA4_0" index="0" speed="13.90" length="297.10" shape="298.55,601.65 1.45,601.65"/>
    </edge>
    <edge id="B4toB3" from="B4" to="B3" priority="-1">
        <lane id="B4toB3_0" index="0" speed="13.90" length="283.90" shape="301.65,604.75 301.65,888.65"/>
    </edge>
    <edge id="B5toB4" from="B5" to="B4" priority="-1">
        <lane id="B5toB4_0" index="0" speed="13.90" length="297.10" shape="301.65,301.45 301.65,598.55"/>
    </edge>
    <edge id="B5toC5" from="B5" to="C5" priority="-1">
        <lane id="B5toC5_0" index="0" speed="13.90" length="290.50" shape="304.75,298.35 595.25,298.35"/>
    </edge>
    <edge id="B6toB5" from="B6" to="B5" priority="-1">
        <lane id="B6toB5_0" index="0" speed="13.90" length="293.80" shape="301.65,1.45 301.65,295.25"/>
    </edge>
    <edge id="B6toC6" from="B6" to="C6" priority="-1">
        <lane id="B6toC6_0" index="0" speed="13.90" length="290.50" shape="304.75,-1.65 595.25,-1.65"/>
    </edge>
    <edge id="C1toB1" from="C1" to="B1" priority="-1">
        <lane id="C1toB1_0" index="0" speed="13.90" length="290.50" shape="595.25,1501.65 304.75,1501.65"/>
    </edge>
    <edge id="C1toC2" from="C1" to="C2" priority="-1">
        <lane id="C1toC2_0" index="0" speed="13.90" length="293.80" shape="598.35,1498.55 598.35,1204.75"/>
    </edge>
    <edge id="C2toB2" from="C2" to="B2" priority="-1">
        <lane id="C2toB2_0" index="0" speed="13.90" length="290.50" shape="595.25,1201.65 304.75,1201.65"/>
    </edge>
    <edge id="C2toC3" from="C2" to="C3" priority="-1">
        <lane id="C2toC3_0" index="0" speed="13.90" length="297.10" shape="598.35,1198.55 598.35,901.45"/>
    </edge>
    <edge id="C3toC4" from="C3" to="C4" priority="-1">
        <lane id="C3toC4_0" index="0" speed="13.90" length="283.90" shape="598.35,888.65 598.35,604.75"/>
    </edge>
    <edge id="C3toD3" from="C3" to="D3" priority="-1">
        <lane id="C3toD3_0" index="0" speed="13.90" length="297.10" shape="601.45,891.75 898.55,891.75"/>
        <lane id="C3toD3_1" index="1" speed="13.90" length="297.10" shape="601.45,895.05 898.55,895.05"/>
        <lane id="C3toD3_2" index="2" speed="13.90" length="297.10" shape="601.45,898.35 898.55,898.35"/>
    </edge>
    <edge id="C4toB4" from="C4" to="B4" priority="-1">
        <lane id="C4toB4_0" index="0" speed="13.90" length="290.50" shape="595.25,601.65 304.75,601.65"/>
    </edge>
    <edge id="C4toC5" from="C4" to="C5" priority="-1">
        <lane id="C4toC5_0" index="0" speed="13.90" length="297.10" shape="598.35,598.55 598.35,301.45"/>
    </edge>
    <edge id="C5toC6" from="C5" to="C6" priority="-1">
        <lane id="C5toC6_0" index="0" speed="13.90" length="293.80" shape="598.35,295.25 598.35,1.45"/>
    </edge>
    <edge id="C5toD5" from="C5" to="D5" priority="-1">
        <lane id="C5toD5_0" index="0" speed="13.90" length="297.10" shape="601.45,298.35 898.55,298.35"/>
    </edge>
    <edge id="C6toD6" from="C6" to="D6" priority="-1">
        <lane id="C6toD6_0" index="0" speed="13.90" length="297.10" shape="601.45,-1.65 898.55,-1.65"/>
    </edge>
    <edge id="D1toC1" from="D1" to="C1" priority="-1">
        <lane id="D1toC1_0" index="0" speed="13.90" length="297.10" shape="898.55,1501.65 601.45,1501.65"/>
    </edge>
    <edge id="D2toC2" from="D2" to="C2" priority="-1">
        <lane id="D2toC2_0" index="0" speed="13.90" length="297.10" shape="898.55,1201.65 601.45,1201.65"/>
    </edge>
    <edge id="D2toD1" from="D2" to="D1" priority="-1">
        <lane id="D2toD1_0" index="0" speed="13.90" length="293.80" shape="901.65,1204.75 901.65,1498.55"/>
    </edge>
    <edge id="D3toD2" from="D3" to="D2" priority="-1">
        <lane id="D3toD2_0" index="0" speed="13.90" length="297.10" shape="901.65,901.45 901.65,1198.55"/>
    </edge>
    <edge id="D3toE3" from="D3" to="E3" priority="-1">
        <lane id="D3toE3_0" index="0" speed="13.90" length="283.90" shape="904.75,891.75 1188.65,891.75"/>
        <lane id="D3toE3_1" index="1" speed="13.90" length="283.90" shape="904.75,895.05 1188.65,895.05"/>
        <lane id="D3toE3_2" index="2" speed="13.90" length="283.90" shape="904.75,898.35 1188.65,898.35"/>
    </edge>
    <edge id="D4toC4" from="D4" to="C4" priority="-1">
        <lane id="D4toC4_0" index="0" speed="13.90" length="297.10" shape="898.55,601.65 601.45,601.65"/>
    </edge>
    <edge id="D4toD3" from="D4" to="D3" priority="-1">
        <lane id="D4toD3_0" index="0" speed="13.90" length="283.90" shape="901.65,604.75 901.65,888.65"/>
    </edge>
    <edge id="D5toD4" from="D5" to="D4" priority="-1">
        <lane id="D5toD4_0" index="0" speed="13.90" length="297.10" shape="901.65,301.45 901.65,598.55"/>
    </edge>
    <edge id="D5toE5" from="D5" to="E5" priority="-1">
        <lane id="D5toE5_0" index="0" speed="13.90" length="283.90" shape="904.75,298.35 1188.65,298.35"/>
    </edge>
    <edge id="D6toD5" from="D6" to="D5" priority="-1">
        <lane id="D6toD5_0" index="0" speed="13.90" length="293.80" shape="901.65,1.45 901.65,295.25"/>
    </edge>
    <edge id="D6toE6" from="D6" to="E6" priority="-1">
        <lane id="D6toE6_0" index="0" speed="13.90" length="290.50" shape="904.75,-1.65 1195.25,-1.65"/>
    </edge>
    <edge id="E1toD1" from="E1" to="D1" priority="-1">
        <lane id="E1toD1_0" index="0" speed="13.90" length="290.50" shape="1195.25,1501.65 904.75,1501.65"/>
    </edge>
    <edge id="E1toE2" from="E1" to="E2" priority="-1">
        <lane id="E1toE2_0" index="0" speed="13.90" length="293.80" shape="1198.35,1498.55 1198.35,1204.75"/>
    </edge>
    <edge id="E2toD2" from="E2" to="D2" priority="-1">
        <lane id="E2toD2_0" index="0" speed="13.90" length="290.50" shape="1195.25,1201.65 904.75,1201.65"/>
    </edge>
    <edge id="E2toE3" from="E2" to="E3" priority="-1">
        <lane id="E2toE3_0" index="0" speed="13.90" length="297.10" shape="1198.35,1198.55 1198.35,901.45"/>
    </edge>
    <edge id="E3toE4" from="E3" to="E4" priority="-1">